<additional xmlns:xsi="http://www.w3.org/2001/XMLSchema-instance">
	<edgeData begin="53100" excludeEmpty="true" file="oEdge_v12.5_mg2.37_sig1.0_a3.0_d3.7.xml" freq="900" id="test" />

	<inductionLoop file="out00.xml" freq="100" id="00" lane="L40_0" pos="500" />
	<inductionLoop file="out01.xml" freq="100" id="01" lane="L40_1" pos="500" />
	<inductionLoop file="out02.xml" freq="100" id="02" lane="L40_2" pos="500" />
	<inductionLoop file="out03.xml" freq="100" id="03" lane="L40_3" pos="500" />
	
	<inductionLoop file="out10.xml" freq="100" id="10" lane="L197#2_0" pos="60" />
	<inductionLoop file="out11.xml" freq="100" id="11" lane="L197#2_1" pos="60" />
	<inductionLoop file="out12.xml" freq="100" id="12" lane="L197#2_2" pos="60" />
	<inductionLoop file="out13.xml" freq="100" id="13" lane="L197#2_3" pos="60" />
	<inductionLoop file="out14.xml" freq="100" id="14" lane="L197#2_4" pos="60" />
	
	<inductionLoop file="out20.xml" freq="100" id="20" lane="L10189_0" pos="165" />
	<inductionLoop file="out21.xml" freq="100" id="21" lane="L10189_1" pos="165" />
	<inductionLoop file="out22.xml" freq="100" id="22" lane="L10189_2" pos="165" />
	<inductionLoop file="out23.xml" freq="100" id="23" lane="L10189_3" pos="165" />
	
	<inductionLoop file="out30.xml" freq="100" id="30" lane="L239_0" pos="30" />
	<inductionLoop file="out31.xml" freq="100" id="31" lane="L239_1" pos="30" />
	<inductionLoop file="out32.xml" freq="100" id="32" lane="L239_2" pos="30" />
	<inductionLoop file="out33.xml" freq="100" id="33" lane="L239_3" pos="30" />
	
    <tlLogics version="0.13" xsi:noNamespaceSchemaLocation="http://sumo-sim.org/xsd/tllogic_file.xsd">

        <tlLogic id="cluster_118_119_120_121" offset="53100" programID="1" type="static">





































































            
            <phase duration="72" state="grrrrrrrrrrrrrrrrrrrrrrrrrrrrrrrrrgggrrrrrrrrrrrrggrrrrrr" />
            <phase duration="171" state="grrrrrrrrrrrrrrrrrrrrrrrrrrrrrrrrrgggrrrrrrrrrrrrggrrrrrr" />
            <phase duration="177" state="grrrrrrrrrrrrrrrrrrrrrrrrrrrrrrrrrgggrrrrrrrrrrrrggrrrrrr" />
            <phase duration="173" state="grrrrrrrrrrrrrrrrrrrrrrrrrrrrrrrrrgggrrrrrrrrrrrrggrrrrrr" />
            <phase duration="180" state="grrrrrrrrrrrrrrrrrrrrrrrrrrrrrrrrrgggrrrrrrrrrrrrggrrrrrr" />
            <phase duration="27" state="gGGGGGGGGrrrrrrrrrrrrrrrrrrrrrrrrrggggGGGGGrrrrrrrrrrrrrr" />
            <phase duration="37" state="gGGGGGGGGGGGGGGrrrrrrrrrrrrrrrrrrrgggrrrrrrrrrrrrggrrrrrr" />
            <phase duration="19" state="grrrrrrrrrrrrrrGGGGGGGGGGGGGGGGGGGgggrrrrrrrrrrrrggrrrrrr" />
            <phase duration="50" state="grrrrrrrrrrrrrrrrrrrrrrrrrrrrrrrrrgggrrrrrrrrrrrrggGGGGGG" />
            <phase duration="36" state="grrrrrrrrrrrrrrrrrrrrrrrrrrrrrrrrrgggGGGGGGGGGGGGggrrrrrr" />
            <phase duration="13" state="gGGGGGGGGrrrrrrrrrrrrrrrrrrrrrrrrrggggGGGGGrrrrrrrrrrrrrr" />
            <phase duration="39" state="gGGGGGGGGGGGGGGrrrrrrrrrrrrrrrrrrrgggrrrrrrrrrrrrggrrrrrr" />
            <phase duration="33" state="grrrrrrrrrrrrrrGGGGGGGGGGGGGGGGGGGgggrrrrrrrrrrrrggrrrrrr" />
            <phase duration="50" state="grrrrrrrrrrrrrrrrrrrrrrrrrrrrrrrrrgggrrrrrrrrrrrrggGGGGGG" />
            <phase duration="37" state="grrrrrrrrrrrrrrrrrrrrrrrrrrrrrrrrrgggGGGGGGGGGGGGggrrrrrr" />
            <phase duration="17" state="gGGGGGGGGrrrrrrrrrrrrrrrrrrrrrrrrrggggGGGGGrrrrrrrrrrrrrr" />
            <phase duration="25" state="gGGGGGGGGGGGGGGrrrrrrrrrrrrrrrrrrrgggrrrrrrrrrrrrggrrrrrr" />
            <phase duration="41" state="grrrrrrrrrrrrrrGGGGGGGGGGGGGGGGGGGgggrrrrrrrrrrrrggrrrrrr" />
            <phase duration="47" state="grrrrrrrrrrrrrrrrrrrrrrrrrrrrrrrrrgggrrrrrrrrrrrrggGGGGGG" />
            <phase duration="60" state="grrrrrrrrrrrrrrrrrrrrrrrrrrrrrrrrrgggGGGGGGGGGGGGggrrrrrr" />
            <phase duration="25" state="grrrrrrrrGGGGGGrrrrrrrrrrrrrrrrrrrgggrrrrrrGGGGGGggrrrrrr" />
            <phase duration="32" state="gGGGGGGGGGGGGGGrrrrrrrrrrrrrrrrrrrgggrrrrrrrrrrrrggrrrrrr" />
            <phase duration="30" state="grrrrrrrrrrrrrrGGGGGGGGGGGGGGGGGGGgggrrrrrrrrrrrrggrrrrrr" />
            <phase duration="46" state="grrrrrrrrrrrrrrrrrrrrrrrrrrrrrrrrrgggrrrrrrrrrrrrggGGGGGG" />
            <phase duration="42" state="grrrrrrrrrrrrrrrrrrrrrrrrrrrrrrrrrgggGGGGGGGGGGGGggrrrrrr" />
            <phase duration="10" state="gGGGGGGGGrrrrrrrrrrrrrrrrrrrrrrrrrggggGGGGGrrrrrrrrrrrrrr" />
            <phase duration="44" state="gGGGGGGGGGGGGGGrrrrrrrrrrrrrrrrrrrgggrrrrrrrrrrrrggrrrrrr" />
            <phase duration="26" state="grrrrrrrrrrrrrrGGGGGGGGGGGGGGGGGGGgggrrrrrrrrrrrrggrrrrrr" />
            <phase duration="50" state="grrrrrrrrrrrrrrrrrrrrrrrrrrrrrrrrrgggrrrrrrrrrrrrggGGGGGG" />
            <phase duration="40" state="grrrrrrrrrrrrrrrrrrrrrrrrrrrrrrrrrgggGGGGGGGGGGGGggrrrrrr" />
            <phase duration="31" state="gGGGGGGGGrrrrrrrrrrrrrrrrrrrrrrrrrggggGGGGGrrrrrrrrrrrrrr" />
            <phase duration="32" state="gGGGGGGGGGGGGGGrrrrrrrrrrrrrrrrrrrgggrrrrrrrrrrrrggrrrrrr" />
            <phase duration="20" state="grrrrrrrrrrrrrrGGGGGGGGGGGGGGGGGGGgggrrrrrrrrrrrrggrrrrrr" />
            <phase duration="50" state="grrrrrrrrrrrrrrrrrrrrrrrrrrrrrrrrrgggrrrrrrrrrrrrggGGGGGG" />
            <phase duration="41" state="grrrrrrrrrrrrrrrrrrrrrrrrrrrrrrrrrgggGGGGGGGGGGGGggrrrrrr" />
            <phase duration="36" state="gGGGGGGGGrrrrrrrrrrrrrrrrrrrrrrrrrggggGGGGGrrrrrrrrrrrrrr" />
            <phase duration="30" state="gGGGGGGGGGGGGGGrrrrrrrrrrrrrrrrrrrgggrrrrrrrrrrrrggrrrrrr" />
            <phase duration="19" state="grrrrrrrrrrrrrrGGGGGGGGGGGGGGGGGGGgggrrrrrrrrrrrrggrrrrrr" />
            <phase duration="49" state="grrrrrrrrrrrrrrrrrrrrrrrrrrrrrrrrrgggrrrrrrrrrrrrggGGGGGG" />
            <phase duration="42" state="grrrrrrrrrrrrrrrrrrrrrrrrrrrrrrrrrgggGGGGGGGGGGGGggrrrrrr" />
            <phase duration="35" state="gGGGGGGGGrrrrrrrrrrrrrrrrrrrrrrrrrggggGGGGGrrrrrrrrrrrrrr" />
            <phase duration="31" state="gGGGGGGGGGGGGGGrrrrrrrrrrrrrrrrrrrgggrrrrrrrrrrrrggrrrrrr" />
            <phase duration="20" state="grrrrrrrrrrrrrrGGGGGGGGGGGGGGGGGGGgggrrrrrrrrrrrrggrrrrrr" />
            <phase duration="59" state="grrrrrrrrrrrrrrrrrrrrrrrrrrrrrrrrrgggrrrrrrrrrrrrggGGGGGG" />
            <phase duration="31" state="grrrrrrrrrrrrrrrrrrrrrrrrrrrrrrrrrgggGGGGGGGGGGGGggrrrrrr" />
            <phase duration="30" state="gGGGGGGGGrrrrrrrrrrrrrrrrrrrrrrrrrggggGGGGGrrrrrrrrrrrrrr" />
            <phase duration="43" state="gGGGGGGGGGGGGGGrrrrrrrrrrrrrrrrrrrgggrrrrrrrrrrrrggrrrrrr" />
            <phase duration="12" state="grrrrrrrrrrrrrrGGGGGGGGGGGGGGGGGGGgggrrrrrrrrrrrrggrrrrrr" />
            <phase duration="48" state="grrrrrrrrrrrrrrrrrrrrrrrrrrrrrrrrrgggrrrrrrrrrrrrggGGGGGG" />
            <phase duration="52" state="grrrrrrrrrrrrrrrrrrrrrrrrrrrrrrrrrgggGGGGGGGGGGGGggrrrrrr" />
            <phase duration="81" state="gGGGGGGGGGGGGGGrrrrrrrrrrrrrrrrrrrgggrrrrrrrrrrrrggrrrrrr" />
            <phase duration="33" state="grrrrrrrrrrrrrrGGGGGGGGGGGGGGGGGGGgggrrrrrrrrrrrrggrrrrrr" />
            <phase duration="44" state="grrrrrrrrrrrrrrrrrrrrrrrrrrrrrrrrrgggrrrrrrrrrrrrggGGGGGG" />
            <phase duration="48" state="grrrrrrrrrrrrrrrrrrrrrrrrrrrrrrrrrgggGGGGGGGGGGGGggrrrrrr" />
            <phase duration="43" state="gGGGGGGGGrrrrrrrrrrrrrrrrrrrrrrrrrggggGGGGGrrrrrrrrrrrrrr" />
            <phase duration="49" state="gGGGGGGGGGGGGGGrrrrrrrrrrrrrrrrrrrgggrrrrrrrrrrrrggrrrrrr" />
            <phase duration="40" state="grrrrrrrrrrrrrrGGGGGGGGGGGGGGGGGGGgggrrrrrrrrrrrrggrrrrrr" />
            <phase duration="39" state="grrrrrrrrrrrrrrrrrrrrrrrrrrrrrrrrrgggrrrrrrrrrrrrggGGGGGG" />
            <phase duration="54" state="grrrrrrrrrrrrrrrrrrrrrrrrrrrrrrrrrgggGGGGGGGGGGGGggrrrrrr" />
            <phase duration="30" state="gGGGGGGGGrrrrrrrrrrrrrrrrrrrrrrrrrggggGGGGGrrrrrrrrrrrrrr" />
            <phase duration="53" state="gGGGGGGGGGGGGGGrrrrrrrrrrrrrrrrrrrgggrrrrrrrrrrrrggrrrrrr" />
            <phase duration="31" state="grrrrrrrrrrrrrrGGGGGGGGGGGGGGGGGGGgggrrrrrrrrrrrrggrrrrrr" />
            <phase duration="47" state="grrrrrrrrrrrrrrrrrrrrrrrrrrrrrrrrrgggrrrrrrrrrrrrggGGGGGG" />
            <phase duration="62" state="grrrrrrrrrrrrrrrrrrrrrrrrrrrrrrrrrgggGGGGGGGGGGGGggrrrrrr" />
            <phase duration="34" state="gGGGGGGGGrrrrrrrrrrrrrrrrrrrrrrrrrggggGGGGGrrrrrrrrrrrrrr" />
            <phase duration="45" state="gGGGGGGGGGGGGGGrrrrrrrrrrrrrrrrrrrgggrrrrrrrrrrrrggrrrrrr" />
            <phase duration="30" state="grrrrrrrrrrrrrrGGGGGGGGGGGGGGGGGGGgggrrrrrrrrrrrrggrrrrrr" />
            <phase duration="51" state="grrrrrrrrrrrrrrrrrrrrrrrrrrrrrrrrrgggrrrrrrrrrrrrggGGGGGG" />
            <phase duration="57" state="grrrrrrrrrrrrrrrrrrrrrrrrrrrrrrrrrgggGGGGGGGGGGGGggrrrrrr" />
            <phase duration="17" state="gGGGGGGGGrrrrrrrrrrrrrrrrrrrrrrrrrggggGGGGGrrrrrrrrrrrrrr" />
            <phase duration="43" state="gGGGGGGGGGGGGGGrrrrrrrrrrrrrrrrrrrgggrrrrrrrrrrrrggrrrrrr" />
            <phase duration="21" state="grrrrrrrrrrrrrrGGGGGGGGGGGGGGGGGGGgggrrrrrrrrrrrrggrrrrrr" />
            <phase duration="44" state="grrrrrrrrrrrrrrrrrrrrrrrrrrrrrrrrrgggrrrrrrrrrrrrggGGGGGG" />
            <phase duration="49" state="grrrrrrrrrrrrrrrrrrrrrrrrrrrrrrrrrgggGGGGGGGGGGGGggrrrrrr" />
            <phase duration="24" state="gGGGGGGGGrrrrrrrrrrrrrrrrrrrrrrrrrggggGGGGGrrrrrrrrrrrrrr" />
            <phase duration="43" state="gGGGGGGGGGGGGGGrrrrrrrrrrrrrrrrrrrgggrrrrrrrrrrrrggrrrrrr" />
            <phase duration="27" state="grrrrrrrrrrrrrrGGGGGGGGGGGGGGGGGGGgggrrrrrrrrrrrrggrrrrrr" />
            <phase duration="37" state="grrrrrrrrrrrrrrrrrrrrrrrrrrrrrrrrrgggrrrrrrrrrrrrggGGGGGG" />
            <phase duration="45" state="grrrrrrrrrrrrrrrrrrrrrrrrrrrrrrrrrgggGGGGGGGGGGGGggrrrrrr" />
            <phase duration="43" state="gGGGGGGGGrrrrrrrrrrrrrrrrrrrrrrrrrggggGGGGGrrrrrrrrrrrrrr" />
            <phase duration="26" state="gGGGGGGGGGGGGGGrrrrrrrrrrrrrrrrrrrgggrrrrrrrrrrrrggrrrrrr" />
            <phase duration="27" state="grrrrrrrrrrrrrrGGGGGGGGGGGGGGGGGGGgggrrrrrrrrrrrrggrrrrrr" />
            <phase duration="37" state="grrrrrrrrrrrrrrrrrrrrrrrrrrrrrrrrrgggrrrrrrrrrrrrggGGGGGG" />
            <phase duration="48" state="grrrrrrrrrrrrrrrrrrrrrrrrrrrrrrrrrgggGGGGGGGGGGGGggrrrrrr" />
            <phase duration="38" state="gGGGGGGGGrrrrrrrrrrrrrrrrrrrrrrrrrggggGGGGGrrrrrrrrrrrrrr" />
            <phase duration="54" state="gGGGGGGGGGGGGGGrrrrrrrrrrrrrrrrrrrgggrrrrrrrrrrrrggrrrrrr" />
            <phase duration="30" state="grrrrrrrrrrrrrrGGGGGGGGGGGGGGGGGGGgggrrrrrrrrrrrrggrrrrrr" />
            <phase duration="54" state="grrrrrrrrrrrrrrrrrrrrrrrrrrrrrrrrrgggrrrrrrrrrrrrggGGGGGG" />
            <phase duration="77" state="grrrrrrrrrrrrrrrrrrrrrrrrrrrrrrrrrgggGGGGGGGGGGGGggrrrrrr" />
            <phase duration="31" state="gGGGGGGGGrrrrrrrrrrrrrrrrrrrrrrrrrggggGGGGGrrrrrrrrrrrrrr" />
            <phase duration="56" state="gGGGGGGGGGGGGGGrrrrrrrrrrrrrrrrrrrgggrrrrrrrrrrrrggrrrrrr" />
            <phase duration="28" state="grrrrrrrrrrrrrrGGGGGGGGGGGGGGGGGGGgggrrrrrrrrrrrrggrrrrrr" />
            <phase duration="55" state="grrrrrrrrrrrrrrrrrrrrrrrrrrrrrrrrrgggrrrrrrrrrrrrggGGGGGG" />
            <phase duration="47" state="grrrrrrrrrrrrrrrrrrrrrrrrrrrrrrrrrgggGGGGGGGGGGGGggrrrrrr" />
            <phase duration="26" state="gGGGGGGGGrrrrrrrrrrrrrrrrrrrrrrrrrggggGGGGGrrrrrrrrrrrrrr" />
            <phase duration="37" state="gGGGGGGGGGGGGGGrrrrrrrrrrrrrrrrrrrgggrrrrrrrrrrrrggrrrrrr" />
            <phase duration="25" state="grrrrrrrrrrrrrrGGGGGGGGGGGGGGGGGGGgggrrrrrrrrrrrrggrrrrrr" />
            <phase duration="41" state="grrrrrrrrrrrrrrrrrrrrrrrrrrrrrrrrrgggGGGGGGGGGGGGggrrrrrr" />
            <phase duration="42" state="grrrrrrrrrrrrrrrrrrrrrrrrrrrrrrrrrgggrrrrrrrrrrrrggGGGGGG" />
            <phase duration="30" state="grrrrrrrrrrrrrrrrrrrrrrrrrrrrrrrrrgggGGGGGGGGGGGGggrrrrrr" />
            <phase duration="45" state="gGGGGGGGGrrrrrrrrrrrrrrrrrrrrrrrrrggggGGGGGrrrrrrrrrrrrrr" />
            <phase duration="47" state="gGGGGGGGGGGGGGGrrrrrrrrrrrrrrrrrrrgggrrrrrrrrrrrrggrrrrrr" />
            <phase duration="32" state="grrrrrrrrrrrrrrGGGGGGGGGGGGGGGGGGGgggrrrrrrrrrrrrggrrrrrr" />
            <phase duration="53" state="grrrrrrrrrrrrrrrrrrrrrrrrrrrrrrrrrgggrrrrrrrrrrrrggGGGGGG" />
            <phase duration="64" state="grrrrrrrrrrrrrrrrrrrrrrrrrrrrrrrrrgggGGGGGGGGGGGGggrrrrrr" />
            <phase duration="27" state="gGGGGGGGGrrrrrrrrrrrrrrrrrrrrrrrrrggggGGGGGrrrrrrrrrrrrrr" />
            <phase duration="34" state="gGGGGGGGGGGGGGGrrrrrrrrrrrrrrrrrrrgggrrrrrrrrrrrrggrrrrrr" />
            <phase duration="35" state="grrrrrrrrrrrrrrGGGGGGGGGGGGGGGGGGGgggrrrrrrrrrrrrggrrrrrr" />
            <phase duration="43" state="grrrrrrrrrrrrrrrrrrrrrrrrrrrrrrrrrgggrrrrrrrrrrrrggGGGGGG" />
            <phase duration="53" state="grrrrrrrrrrrrrrrrrrrrrrrrrrrrrrrrrgggGGGGGGGGGGGGggrrrrrr" />
            <phase duration="23" state="gGGGGGGGGrrrrrrrrrrrrrrrrrrrrrrrrrggggGGGGGrrrrrrrrrrrrrr" />
            <phase duration="30" state="gGGGGGGGGGGGGGGrrrrrrrrrrrrrrrrrrrgggrrrrrrrrrrrrggrrrrrr" />
            <phase duration="25" state="grrrrrrrrrrrrrrGGGGGGGGGGGGGGGGGGGgggrrrrrrrrrrrrggrrrrrr" />
            <phase duration="49" state="grrrrrrrrrrrrrrrrrrrrrrrrrrrrrrrrrgggrrrrrrrrrrrrggGGGGGG" />
            <phase duration="38" state="grrrrrrrrrrrrrrrrrrrrrrrrrrrrrrrrrgggGGGGGGGGGGGGggrrrrrr" />
            <phase duration="30" state="gGGGGGGGGrrrrrrrrrrrrrrrrrrrrrrrrrggggGGGGGrrrrrrrrrrrrrr" />
            <phase duration="36" state="gGGGGGGGGGGGGGGrrrrrrrrrrrrrrrrrrrgggrrrrrrrrrrrrggrrrrrr" />
            <phase duration="27" state="grrrrrrrrrrrrrrGGGGGGGGGGGGGGGGGGGgggrrrrrrrrrrrrggrrrrrr" />
            <phase duration="46" state="grrrrrrrrrrrrrrrrrrrrrrrrrrrrrrrrrgggrrrrrrrrrrrrggGGGGGG" />
            <phase duration="59" state="grrrrrrrrrrrrrrrrrrrrrrrrrrrrrrrrrgggGGGGGGGGGGGGggrrrrrr" />
            <phase duration="27" state="gGGGGGGGGrrrrrrrrrrrrrrrrrrrrrrrrrggggGGGGGrrrrrrrrrrrrrr" />
            <phase duration="37" state="gGGGGGGGGGGGGGGrrrrrrrrrrrrrrrrrrrgggrrrrrrrrrrrrggrrrrrr" />
            <phase duration="43" state="grrrrrrrrrrrrrrGGGGGGGGGGGGGGGGGGGgggrrrrrrrrrrrrggrrrrrr" />
            <phase duration="53" state="grrrrrrrrrrrrrrrrrrrrrrrrrrrrrrrrrgggrrrrrrrrrrrrggGGGGGG" />
            <phase duration="57" state="grrrrrrrrrrrrrrrrrrrrrrrrrrrrrrrrrgggGGGGGGGGGGGGggrrrrrr" />
            <phase duration="35" state="gGGGGGGGGrrrrrrrrrrrrrrrrrrrrrrrrrggggGGGGGrrrrrrrrrrrrrr" />
            <phase duration="29" state="gGGGGGGGGGGGGGGrrrrrrrrrrrrrrrrrrrgggrrrrrrrrrrrrggrrrrrr" />
            <phase duration="28" state="grrrrrrrrrrrrrrGGGGGGGGGGGGGGGGGGGgggrrrrrrrrrrrrggrrrrrr" />
            <phase duration="57" state="grrrrrrrrrrrrrrrrrrrrrrrrrrrrrrrrrgggrrrrrrrrrrrrggGGGGGG" />
            <phase duration="36" state="grrrrrrrrrrrrrrrrrrrrrrrrrrrrrrrrrgggGGGGGGGGGGGGggrrrrrr" />
            <phase duration="39" state="gGGGGGGGGrrrrrrrrrrrrrrrrrrrrrrrrrggggGGGGGrrrrrrrrrrrrrr" />
            <phase duration="30" state="gGGGGGGGGGGGGGGrrrrrrrrrrrrrrrrrrrgggrrrrrrrrrrrrggrrrrrr" />
            <phase duration="56" state="grrrrrrrrrrrrrrGGGGGGGGGGGGGGGGGGGgggrrrrrrrrrrrrggrrrrrr" />
            <phase duration="45" state="grrrrrrrrrrrrrrrrrrrrrrrrrrrrrrrrrgggrrrrrrrrrrrrggGGGGGG" />
            <phase duration="51" state="grrrrrrrrrrrrrrrrrrrrrrrrrrrrrrrrrgggGGGGGGGGGGGGggrrrrrr" />
            <phase duration="33" state="gGGGGGGGGrrrrrrrrrrrrrrrrrrrrrrrrrggggGGGGGrrrrrrrrrrrrrr" />
            <phase duration="46" state="gGGGGGGGGGGGGGGrrrrrrrrrrrrrrrrrrrgggrrrrrrrrrrrrggrrrrrr" />
            <phase duration="35" state="grrrrrrrrrrrrrrGGGGGGGGGGGGGGGGGGGgggrrrrrrrrrrrrggrrrrrr" />
            <phase duration="60" state="grrrrrrrrrrrrrrrrrrrrrrrrrrrrrrrrrgggrrrrrrrrrrrrggGGGGGG" />
            <phase duration="44" state="grrrrrrrrrrrrrrrrrrrrrrrrrrrrrrrrrgggGGGGGGGGGGGGggrrrrrr" />
            <phase duration="39" state="gGGGGGGGGrrrrrrrrrrrrrrrrrrrrrrrrrggggGGGGGrrrrrrrrrrrrrr" />
            <phase duration="31" state="gGGGGGGGGGGGGGGrrrrrrrrrrrrrrrrrrrgggrrrrrrrrrrrrggrrrrrr" />
            <phase duration="36" state="grrrrrrrrrrrrrrGGGGGGGGGGGGGGGGGGGgggrrrrrrrrrrrrggrrrrrr" />
            <phase duration="60" state="grrrrrrrrrrrrrrrrrrrrrrrrrrrrrrrrrgggrrrrrrrrrrrrggGGGGGG" />
            <phase duration="52" state="grrrrrrrrrrrrrrrrrrrrrrrrrrrrrrrrrgggGGGGGGGGGGGGggrrrrrr" />
            <phase duration="32" state="gGGGGGGGGrrrrrrrrrrrrrrrrrrrrrrrrrggggGGGGGrrrrrrrrrrrrrr" />
            <phase duration="52" state="gGGGGGGGGGGGGGGrrrrrrrrrrrrrrrrrrrgggrrrrrrrrrrrrggrrrrrr" />
            <phase duration="32" state="grrrrrrrrrrrrrrGGGGGGGGGGGGGGGGGGGgggrrrrrrrrrrrrggrrrrrr" />
            <phase duration="46" state="grrrrrrrrrrrrrrrrrrrrrrrrrrrrrrrrrgggrrrrrrrrrrrrggGGGGGG" />
            <phase duration="40" state="grrrrrrrrrrrrrrrrrrrrrrrrrrrrrrrrrgggGGGGGGGGGGGGggrrrrrr" />
            <phase duration="38" state="gGGGGGGGGrrrrrrrrrrrrrrrrrrrrrrrrrggggGGGGGrrrrrrrrrrrrrr" />
            <phase duration="60" state="gGGGGGGGGGGGGGGrrrrrrrrrrrrrrrrrrrgggrrrrrrrrrrrrggrrrrrr" />
            <phase duration="40" state="grrrrrrrrrrrrrrGGGGGGGGGGGGGGGGGGGgggrrrrrrrrrrrrggrrrrrr" />
            <phase duration="44" state="grrrrrrrrrrrrrrrrrrrrrrrrrrrrrrrrrgggrrrrrrrrrrrrggGGGGGG" />
            <phase duration="47" state="grrrrrrrrrrrrrrrrrrrrrrrrrrrrrrrrrgggGGGGGGGGGGGGggrrrrrr" />
            <phase duration="19" state="gGGGGGGGGrrrrrrrrrrrrrrrrrrrrrrrrrggggGGGGGrrrrrrrrrrrrrr" />
            <phase duration="30" state="gGGGGGGGGGGGGGGrrrrrrrrrrrrrrrrrrrgggrrrrrrrrrrrrggrrrrrr" />
            <phase duration="37" state="grrrrrrrrrrrrrrGGGGGGGGGGGGGGGGGGGgggrrrrrrrrrrrrggrrrrrr" />
            <phase duration="43" state="grrrrrrrrrrrrrrrrrrrrrrrrrrrrrrrrrgggrrrrrrrrrrrrggGGGGGG" />
            <phase duration="67" state="grrrrrrrrrrrrrrrrrrrrrrrrrrrrrrrrrgggGGGGGGGGGGGGggrrrrrr" />
            <phase duration="13" state="gGGGGGGGGrrrrrrrrrrrrrrrrrrrrrrrrrggggGGGGGrrrrrrrrrrrrrr" />
            <phase duration="37" state="gGGGGGGGGGGGGGGrrrrrrrrrrrrrrrrrrrgggrrrrrrrrrrrrggrrrrrr" />
            <phase duration="23" state="grrrrrrrrrrrrrrGGGGGGGGGGGGGGGGGGGgggrrrrrrrrrrrrggrrrrrr" />
            <phase duration="37" state="grrrrrrrrrrrrrrrrrrrrrrrrrrrrrrrrrgggrrrrrrrrrrrrggGGGGGG" />
            <phase duration="43" state="grrrrrrrrrrrrrrrrrrrrrrrrrrrrrrrrrgggGGGGGGGGGGGGggrrrrrr" />
            <phase duration="40" state="gGGGGGGGGrrrrrrrrrrrrrrrrrrrrrrrrrggggGGGGGrrrrrrrrrrrrrr" />
            <phase duration="46" state="gGGGGGGGGGGGGGGrrrrrrrrrrrrrrrrrrrgggrrrrrrrrrrrrggrrrrrr" />
            <phase duration="36" state="grrrrrrrrrrrrrrGGGGGGGGGGGGGGGGGGGgggrrrrrrrrrrrrggrrrrrr" />
            <phase duration="35" state="grrrrrrrrrrrrrrrrrrrrrrrrrrrrrrrrrgggrrrrrrrrrrrrggGGGGGG" />
            <phase duration="57" state="grrrrrrrrrrrrrrrrrrrrrrrrrrrrrrrrrgggGGGGGGGGGGGGggrrrrrr" />
            <phase duration="34" state="gGGGGGGGGrrrrrrrrrrrrrrrrrrrrrrrrrggggGGGGGrrrrrrrrrrrrrr" />
            <phase duration="48" state="gGGGGGGGGGGGGGGrrrrrrrrrrrrrrrrrrrgggrrrrrrrrrrrrggrrrrrr" />
            <phase duration="25" state="grrrrrrrrrrrrrrGGGGGGGGGGGGGGGGGGGgggrrrrrrrrrrrrggrrrrrr" />
            <phase duration="79" state="grrrrrrrrrrrrrrrrrrrrrrrrrrrrrrrrrgggrrrrrrrrrrrrggGGGGGG" />
            <phase duration="65" state="grrrrrrrrrrrrrrrrrrrrrrrrrrrrrrrrrgggGGGGGGGGGGGGggrrrrrr" />
            <phase duration="59" state="gGGGGGGGGrrrrrrrrrrrrrrrrrrrrrrrrrggggGGGGGrrrrrrrrrrrrrr" />
            <phase duration="47" state="gGGGGGGGGGGGGGGrrrrrrrrrrrrrrrrrrrgggrrrrrrrrrrrrggrrrrrr" />
            <phase duration="28" state="grrrrrrrrrrrrrrGGGGGGGGGGGGGGGGGGGgggrrrrrrrrrrrrggrrrrrr" />
            <phase duration="46" state="grrrrrrrrrrrrrrrrrrrrrrrrrrrrrrrrrgggrrrrrrrrrrrrggGGGGGG" />
            <phase duration="44" state="grrrrrrrrrrrrrrrrrrrrrrrrrrrrrrrrrgggGGGGGGGGGGGGggrrrrrr" />
            <phase duration="38" state="gGGGGGGGGrrrrrrrrrrrrrrrrrrrrrrrrrggggGGGGGrrrrrrrrrrrrrr" />
            <phase duration="38" state="gGGGGGGGGGGGGGGrrrrrrrrrrrrrrrrrrrgggrrrrrrrrrrrrggrrrrrr" />
            <phase duration="45" state="grrrrrrrrrrrrrrGGGGGGGGGGGGGGGGGGGgggrrrrrrrrrrrrggrrrrrr" />
            <phase duration="64" state="grrrrrrrrrrrrrrrrrrrrrrrrrrrrrrrrrgggrrrrrrrrrrrrggGGGGGG" />
            <phase duration="39" state="grrrrrrrrrrrrrrrrrrrrrrrrrrrrrrrrrgggGGGGGGGGGGGGggrrrrrr" />
            <phase duration="58" state="gGGGGGGGGrrrrrrrrrrrrrrrrrrrrrrrrrggggGGGGGrrrrrrrrrrrrrr" />
            <phase duration="43" state="grrrrrrrrGGGGGGrrrrrrrrrrrrrrrrrrrgggrrrrrrGGGGGGggrrrrrr" />
            <phase duration="31" state="grrrrrrrrrrrrrrGGGGGGGGGGGGGGGGGGGgggrrrrrrrrrrrrggrrrrrr" />
            <phase duration="63" state="grrrrrrrrrrrrrrrrrrrrrrrrrrrrrrrrrgggrrrrrrrrrrrrggGGGGGG" />
            <phase duration="46" state="grrrrrrrrrrrrrrrrrrrrrrrrrrrrrrrrrgggGGGGGGGGGGGGggrrrrrr" />
            <phase duration="29" state="gGGGGGGGGrrrrrrrrrrrrrrrrrrrrrrrrrggggGGGGGrrrrrrrrrrrrrr" />
            <phase duration="31" state="gGGGGGGGGGGGGGGrrrrrrrrrrrrrrrrrrrgggrrrrrrrrrrrrggrrrrrr" />
            <phase duration="49" state="grrrrrrrrrrrrrrGGGGGGGGGGGGGGGGGGGgggrrrrrrrrrrrrggrrrrrr" />
            <phase duration="80" state="grrrrrrrrrrrrrrrrrrrrrrrrrrrrrrrrrgggrrrrrrrrrrrrggGGGGGG" />
            <phase duration="66" state="grrrrrrrrrrrrrrrrrrrrrrrrrrrrrrrrrgggGGGGGGGGGGGGggrrrrrr" />
            <phase duration="49" state="gGGGGGGGGrrrrrrrrrrrrrrrrrrrrrrrrrggggGGGGGrrrrrrrrrrrrrr" />
            <phase duration="39" state="gGGGGGGGGGGGGGGrrrrrrrrrrrrrrrrrrrgggrrrrrrrrrrrrggrrrrrr" />
            <phase duration="38" state="grrrrrrrrrrrrrrGGGGGGGGGGGGGGGGGGGgggrrrrrrrrrrrrggrrrrrr" />
            <phase duration="50" state="grrrrrrrrrrrrrrrrrrrrrrrrrrrrrrrrrgggrrrrrrrrrrrrggGGGGGG" />
            <phase duration="55" state="grrrrrrrrrrrrrrrrrrrrrrrrrrrrrrrrrgggGGGGGGGGGGGGggrrrrrr" />
            <phase duration="54" state="gGGGGGGGGrrrrrrrrrrrrrrrrrrrrrrrrrggggGGGGGrrrrrrrrrrrrrr" />
            <phase duration="37" state="gGGGGGGGGGGGGGGrrrrrrrrrrrrrrrrrrrgggrrrrrrrrrrrrggrrrrrr" />
            <phase duration="44" state="grrrrrrrrrrrrrrGGGGGGGGGGGGGGGGGGGgggrrrrrrrrrrrrggrrrrrr" />
            <phase duration="52" state="grrrrrrrrrrrrrrrrrrrrrrrrrrrrrrrrrgggrrrrrrrrrrrrggGGGGGG" />
            <phase duration="49" state="grrrrrrrrrrrrrrrrrrrrrrrrrrrrrrrrrgggGGGGGGGGGGGGggrrrrrr" />
            <phase duration="80" state="gGGGGGGGGrrrrrrrrrrrrrrrrrrrrrrrrrggggGGGGGrrrrrrrrrrrrrr" />
            <phase duration="37" state="grrrrrrrrGGGGGGrrrrrrrrrrrrrrrrrrrgggrrrrrrGGGGGGggrrrrrr" />
            <phase duration="28" state="grrrrrrrrrrrrrrGGGGGGGGGGGGGGGGGGGgggrrrrrrrrrrrrggrrrrrr" />
            <phase duration="50" state="grrrrrrrrrrrrrrrrrrrrrrrrrrrrrrrrrgggrrrrrrrrrrrrggGGGGGG" />
            <phase duration="43" state="grrrrrrrrrrrrrrrrrrrrrrrrrrrrrrrrrgggGGGGGGGGGGGGggrrrrrr" />
            <phase duration="59" state="gGGGGGGGGrrrrrrrrrrrrrrrrrrrrrrrrrggggGGGGGrrrrrrrrrrrrrr" />
            <phase duration="57" state="gGGGGGGGGGGGGGGrrrrrrrrrrrrrrrrrrrgggrrrrrrrrrrrrggrrrrrr" />
            <phase duration="28" state="grrrrrrrrrrrrrrGGGGGGGGGGGGGGGGGGGgggrrrrrrrrrrrrggrrrrrr" />
            <phase duration="40" state="grrrrrrrrrrrrrrrrrrrrrrrrrrrrrrrrrgggrrrrrrrrrrrrggGGGGGG" />
            <phase duration="49" state="grrrrrrrrrrrrrrrrrrrrrrrrrrrrrrrrrgggGGGGGGGGGGGGggrrrrrr" />
            <phase duration="39" state="gGGGGGGGGrrrrrrrrrrrrrrrrrrrrrrrrrggggGGGGGrrrrrrrrrrrrrr" />
            <phase duration="45" state="gGGGGGGGGGGGGGGrrrrrrrrrrrrrrrrrrrgggrrrrrrrrrrrrggrrrrrr" />
            <phase duration="38" state="grrrrrrrrrrrrrrGGGGGGGGGGGGGGGGGGGgggrrrrrrrrrrrrggrrrrrr" />
            <phase duration="42" state="grrrrrrrrrrrrrrrrrrrrrrrrrrrrrrrrrgggrrrrrrrrrrrrggGGGGGG" />
            <phase duration="44" state="grrrrrrrrrrrrrrrrrrrrrrrrrrrrrrrrrgggGGGGGGGGGGGGggrrrrrr" />
            <phase duration="21" state="gGGGGGGGGrrrrrrrrrrrrrrrrrrrrrrrrrggggGGGGGrrrrrrrrrrrrrr" />
            <phase duration="51" state="gGGGGGGGGGGGGGGrrrrrrrrrrrrrrrrrrrgggrrrrrrrrrrrrggrrrrrr" />
            <phase duration="28" state="grrrrrrrrrrrrrrGGGGGGGGGGGGGGGGGGGgggrrrrrrrrrrrrggrrrrrr" />
            <phase duration="61" state="grrrrrrrrrrrrrrrrrrrrrrrrrrrrrrrrrgggrrrrrrrrrrrrggGGGGGG" />
            <phase duration="39" state="grrrrrrrrrrrrrrrrrrrrrrrrrrrrrrrrrgggGGGGGGGGGGGGggrrrrrr" />
            <phase duration="46" state="gGGGGGGGGrrrrrrrrrrrrrrrrrrrrrrrrrggggGGGGGrrrrrrrrrrrrrr" />
            <phase duration="43" state="gGGGGGGGGGGGGGGrrrrrrrrrrrrrrrrrrrgggrrrrrrrrrrrrggrrrrrr" />
            <phase duration="31" state="grrrrrrrrrrrrrrGGGGGGGGGGGGGGGGGGGgggrrrrrrrrrrrrggrrrrrr" />
            <phase duration="34" state="grrrrrrrrrrrrrrrrrrrrrrrrrrrrrrrrrgggrrrrrrrrrrrrggGGGGGG" />
            <phase duration="41" state="grrrrrrrrrrrrrrrrrrrrrrrrrrrrrrrrrgggGGGGGGGGGGGGggrrrrrr" />
            <phase duration="36" state="gGGGGGGGGrrrrrrrrrrrrrrrrrrrrrrrrrggggGGGGGrrrrrrrrrrrrrr" />
            <phase duration="32" state="gGGGGGGGGGGGGGGrrrrrrrrrrrrrrrrrrrgggrrrrrrrrrrrrggrrrrrr" />
            <phase duration="41" state="grrrrrrrrrrrrrrGGGGGGGGGGGGGGGGGGGgggrrrrrrrrrrrrggrrrrrr" />
            <phase duration="42" state="grrrrrrrrrrrrrrrrrrrrrrrrrrrrrrrrrgggrrrrrrrrrrrrggGGGGGG" />
            <phase duration="60" state="grrrrrrrrrrrrrrrrrrrrrrrrrrrrrrrrrgggGGGGGGGGGGGGggrrrrrr" />
            <phase duration="40" state="gGGGGGGGGrrrrrrrrrrrrrrrrrrrrrrrrrggggGGGGGrrrrrrrrrrrrrr" />
            <phase duration="50" state="gGGGGGGGGGGGGGGrrrrrrrrrrrrrrrrrrrgggrrrrrrrrrrrrggrrrrrr" />
            <phase duration="31" state="grrrrrrrrrrrrrrGGGGGGGGGGGGGGGGGGGgggrrrrrrrrrrrrggrrrrrr" />
            <phase duration="40" state="grrrrrrrrrrrrrrrrrrrrrrrrrrrrrrrrrgggrrrrrrrrrrrrggGGGGGG" />
            <phase duration="67" state="grrrrrrrrrrrrrrrrrrrrrrrrrrrrrrrrrgggGGGGGGGGGGGGggrrrrrr" />
            <phase duration="53" state="gGGGGGGGGrrrrrrrrrrrrrrrrrrrrrrrrrggggGGGGGrrrrrrrrrrrrrr" />
            <phase duration="52" state="grrrrrrrrGGGGGGrrrrrrrrrrrrrrrrrrrgggrrrrrrGGGGGGggrrrrrr" />
            <phase duration="36" state="grrrrrrrrrrrrrrGGGGGGGGGGGGGGGGGGGgggrrrrrrrrrrrrggrrrrrr" />
            <phase duration="26" state="grrrrrrrrrrrrrrrrrrrrrrrrrrrrrrrrrgggGGGGGGGGGGGGggrrrrrr" />
            <phase duration="37" state="grrrrrrrrrrrrrrrrrrrrrrrrrrrrrrrrrgggrrrrrrrrrrrrggGGGGGG" />
            <phase duration="44" state="grrrrrrrrrrrrrrrrrrrrrrrrrrrrrrrrrgggGGGGGGGGGGGGggrrrrrr" />
            <phase duration="27" state="gGGGGGGGGrrrrrrrrrrrrrrrrrrrrrrrrrggggGGGGGrrrrrrrrrrrrrr" />
            <phase duration="26" state="gGGGGGGGGGGGGGGrrrrrrrrrrrrrrrrrrrgggrrrrrrrrrrrrggrrrrrr" />
            <phase duration="30" state="grrrrrrrrrrrrrrGGGGGGGGGGGGGGGGGGGgggrrrrrrrrrrrrggrrrrrr" />
            <phase duration="72" state="grrrrrrrrrrrrrrrrrrrrrrrrrrrrrrrrrgggrrrrrrrrrrrrggGGGGGG" />
            <phase duration="63" state="grrrrrrrrrrrrrrrrrrrrrrrrrrrrrrrrrgggGGGGGGGGGGGGggrrrrrr" />
            <phase duration="56" state="gGGGGGGGGrrrrrrrrrrrrrrrrrrrrrrrrrggggGGGGGrrrrrrrrrrrrrr" />
            <phase duration="57" state="gGGGGGGGGGGGGGGrrrrrrrrrrrrrrrrrrrgggrrrrrrrrrrrrggrrrrrr" />
            <phase duration="43" state="grrrrrrrrrrrrrrGGGGGGGGGGGGGGGGGGGgggrrrrrrrrrrrrggrrrrrr" />
            <phase duration="40" state="grrrrrrrrrrrrrrrrrrrrrrrrrrrrrrrrrgggrrrrrrrrrrrrggGGGGGG" />
            <phase duration="67" state="grrrrrrrrrrrrrrrrrrrrrrrrrrrrrrrrrgggGGGGGGGGGGGGggrrrrrr" />
            <phase duration="28" state="gGGGGGGGGrrrrrrrrrrrrrrrrrrrrrrrrrggggGGGGGrrrrrrrrrrrrrr" />
            <phase duration="45" state="gGGGGGGGGGGGGGGrrrrrrrrrrrrrrrrrrrgggrrrrrrrrrrrrggrrrrrr" />
            <phase duration="26" state="grrrrrrrrrrrrrrGGGGGGGGGGGGGGGGGGGgggrrrrrrrrrrrrggrrrrrr" />
            <phase duration="42" state="grrrrrrrrrrrrrrrrrrrrrrrrrrrrrrrrrgggrrrrrrrrrrrrggGGGGGG" />
            <phase duration="46" state="grrrrrrrrrrrrrrrrrrrrrrrrrrrrrrrrrgggGGGGGGGGGGGGggrrrrrr" />
            <phase duration="57" state="gGGGGGGGGrrrrrrrrrrrrrrrrrrrrrrrrrggggGGGGGrrrrrrrrrrrrrr" />
            <phase duration="49" state="grrrrrrrrGGGGGGrrrrrrrrrrrrrrrrrrrgggrrrrrrGGGGGGggrrrrrr" />
            <phase duration="30" state="grrrrrrrrrrrrrrGGGGGGGGGGGGGGGGGGGgggrrrrrrrrrrrrggrrrrrr" />
            <phase duration="38" state="gGGGGGGGGrrrrrrrrrrrrrrrrrrrrrrrrrggggGGGGGrrrrrrrrrrrrrr" />
            <phase duration="64" state="grrrrrrrrrrrrrrrrrrrrrrrrrrrrrrrrrgggrrrrrrrrrrrrggGGGGGG" />
            <phase duration="65" state="grrrrrrrrrrrrrrrrrrrrrrrrrrrrrrrrrgggGGGGGGGGGGGGggrrrrrr" />
            <phase duration="12" state="gGGGGGGGGrrrrrrrrrrrrrrrrrrrrrrrrrggggGGGGGrrrrrrrrrrrrrr" />
            <phase duration="40" state="gGGGGGGGGGGGGGGrrrrrrrrrrrrrrrrrrrgggrrrrrrrrrrrrggrrrrrr" />
            <phase duration="34" state="grrrrrrrrrrrrrrGGGGGGGGGGGGGGGGGGGgggrrrrrrrrrrrrggrrrrrr" />
            <phase duration="22" state="grrrrrrrrrrrrrrrrrrrrrrrrrrrrrrrrrgggGGGGGGGGGGGGggrrrrrr" />
            <phase duration="43" state="grrrrrrrrrrrrrrrrrrrrrrrrrrrrrrrrrgggrrrrrrrrrrrrggGGGGGG" />
            <phase duration="42" state="grrrrrrrrrrrrrrrrrrrrrrrrrrrrrrrrrgggGGGGGGGGGGGGggrrrrrr" />
            <phase duration="22" state="gGGGGGGGGrrrrrrrrrrrrrrrrrrrrrrrrrggggGGGGGrrrrrrrrrrrrrr" />
            <phase duration="42" state="gGGGGGGGGGGGGGGrrrrrrrrrrrrrrrrrrrgggrrrrrrrrrrrrggrrrrrr" />
            <phase duration="41" state="grrrrrrrrrrrrrrGGGGGGGGGGGGGGGGGGGgggrrrrrrrrrrrrggrrrrrr" />