<?xml version="1.0" encoding="UTF-8"?>
<routes>
    <vType accel="1.8" decel="1.9" id="Car" length="4.62" minGap="2.373" maxSpeed="12.5" sigma="0.7" speedDev="0.1"/>
    <route id="route1" edges="L10195 L141 L142 L137 L49 L10130 L10189 L30 L10059 L40274 L40407 L40524 L1163 L40173 L40304 L40415 L40453 L40172 L40303 L2584 L900190313"/>
    <route id="route2" edges="L10195 L141 L142 L137 L49 L134 L132 L20149 L30927 L30940 L68 L30523 L522 L30521 L30544 L843"/>
    <route id="route3" edges="L10195 L141 L142 L137 L49 L10130 L10189 L72 L39 L636 L623 L632 L822"/>
    <route id="route4" edges="L83 L158 L230 L220 L96 L98 L637 L625"/>
    <route id="route5" edges="L45 L10175 L247 L174 L161 L241 L162 L214 L10223 L10113 L210 L270 L6 L30795 L40731 L755 L838"/>
    <route id="route6" edges="L45 L10175 L247 L174 L161 L241 L162 L214 L10223 L10029 L278 L2127 L3783 L2149"/>
    <route id="route7" edges="L25 L237 L250 L37 L193#1 L193#2 L197#1 L197#2 L30 L10059 L40274 L40407 L40524 L1163 L40173 L40304 L40415 L40453 L40172 L40303 L2584 L900190313"/>
    <route id="route8" edges="L25 L237 L250 L37 L193#1 L193#2 L197#1 L197#2 L30 L58#1 L58#2 L68 L30523 L522 L30521 L30544 L843"/>
    <route id="route9" edges="L4 L70 L54 L596 L600 L652 L53 L145 L221 L155 L10017 L10168 L3608"/>
    <route id="route10" edges="L4 L70 L54 L596 L600 L652 L53 L145 L221 L155 L10017 L52"/>
    <route id="route11" edges="L4 L70 L54 L596 L560"/>
    <route id="route12" edges="L64 L10130 L10189 L30 L10059 L40274 L40407 L40524 L1163 L40173 L40304 L40415 L40453 L40172 L40303 L2584 L900190313"/>
    <route id="route13" edges="L850 L40297 L67 L20149 L30927 L30940 L68 L30523 L522 L30521 L30544 L843"/>
    <route id="route14" edges="L64 L10130 L10189 L72 L39 L636 L623 L632 L822"/>
    <route id="route15" edges="L64 L10130 L10189 L10150 L182 L181 L243 L240 L96 L98 L637 L625 L40077"/>
    <route id="route16" edges="L64 L10130 L10189 L10150 L182 L181 L243 L240 L45 L10175 L247 L174 L161 L241 L162 L214 L10223 L10113 L210 L270 L6 L30795 L40731 L755 L838"/>
    <route id="route17" edges="L64 L10130 L10189 L10150 L182 L181 L243 L240 L45 L10175 L247 L174 L161 L241 L162 L214 L10223 L10029 L278 L2127 L3783 L2149"/>
    <route id="route18" edges="L64 L135 L140#1 L140#2 L185 L139 L144 L143 L145 L221 L155 L10017 L10168 L3608"/>
    <route id="route19" edges="L10130 L10189 L30 L10059 L40274 L40407 L40524 L1163 L40173 L40304 L40415 L40453 L40172 L40303 L2584 L900190313"/>
    <route id="route20" edges="L10130 L10189 L72 L39 L636 L623 L632 L822"/>
    <route id="route21" edges="L10150 L182 L181 L243 L240 L96 L98 L637 L625"/>
    <route id="route22" edges="L10150 L182 L181 L243 L240 L45 L10175 L247 L174 L161 L241 L162 L214 L10223 L10113 L210 L270 L6 L30795 L40731 L755 L838"/>
    <route id="route23" edges="L10150 L182 L181 L243 L240 L45 L10175 L247 L174 L161 L241 L162 L214 L10223 L10029 L278 L2127 L3783 L2149"/>
    <route id="route24" edges="L10199 L154 L153 L151 L148 L10195 L141 L142 L137 L49 L10130 L10189 L30 L10059 L40274 L40407 L40524 L1163 L40173 L40304 L40415 L40453 L40172 L40303 L2584 L900190313"/>
    <route id="route25" edges="L10199 L154 L153 L151 L148 L10195 L141 L142 L137 L49 L134 L132 L20149 L30927 L30940 L68 L30523 L522 L30521 L30544 L843"/>
    <route id="route26" edges="L10199 L154 L153 L151 L148 L10195 L141 L142 L137 L49 L10130 L10189 L72 L39 L636 L623 L632 L822"/>
    <route id="route27" edges="L10199 L154 L153 L151 L148 L83 L158 L230 L220 L96 L98 L637 L625"/>
    <route id="route28" edges="L10199 L118 L119 L10022 L170 L51 L266 L27 L10113 L210 L270 L6 L30795 L40731 L755 L838"/>
    <route id="route29" edges="L10199 L10168 L3608"/>
    <route id="route30" edges="L10199 L118 L119 L10022 L170 L51 L266 L263 L278 L2127 L3783 L2149"/>
    <route id="route31" edges="L154 L153 L151 L148 L10195 L141 L142 L137 L49 L10130 L10189 L30 L10059 L40274 L40407 L40524 L1163 L40173 L40304 L40415 L40453 L40172 L40303 L2584 L900190313"/>
    <route id="route32" edges="L154 L153 L151 L148 L10195 L141 L142 L137 L49 L134 L132 L20149 L30927 L30940 L68 L30523 L522 L30521 L30544 L843"/>
    <route id="route33" edges="L154 L153 L151 L148 L10195 L141 L142 L137 L49 L10130 L10189 L72 L39 L636 L623 L632 L822"/>
    <route id="route34" edges="L154 L153 L151 L148 L83 L158 L230 L220 L96 L98 L637 L625"/>
    <route id="route35" edges="L154 L153 L151 L148 L54 L596 L560"/>
    <route id="route36" edges="L225 L10114 L10256 L160 L245 L173 L10217 L25 L237 L250 L37 L193#1 L193#2 L197#1 L197#2 L30 L10059 L40274 L40407 L40524 L1163 L40173 L40304 L40415 L40453 L40172 L40303 L2584 L900190313"/>
    <route id="route37" edges="L225 L10114 L10256 L160 L245 L173 L10217 L25 L237 L250 L37 L193#1 L193#2 L197#1 L197#2 L72 L39 L636 L623 L632 L822"/>
    <route id="route38" edges="L196 L10187 L10010 L120 L10014 L10018 L7 L154 L153 L151 L148 L54 L596 L560"/>
    <route id="route39" edges="L2013 L40730 L136 L176 L154 L153 L151 L148 L10195 L141 L142 L137 L49 L10130 L10189 L30 L10059 L40274 L40407 L40524 L1163 L40173 L40304 L40415 L40453 L40172 L40303 L2584 L900190313"/>
    <route id="route40" edges="L2013 L40730 L136 L176 L154 L153 L151 L148 L10195 L141 L142 L137 L49 L134 L132 L20149 L30927 L30940 L68 L30523 L522 L30521 L30544 L843"/>
    <route id="route41" edges="L2013 L40730 L136 L176 L154 L153 L151 L148 L10195 L141 L142 L137 L49 L10130 L10189 L72 L39 L636 L623 L632 L822"/>
    <route id="route42" edges="L2013 L40730 L136 L176 L154 L153 L151 L148 L83 L158 L230 L220 L96 L98 L637 L625"/>
    <route id="route43" edges="L2013 L40730 L136 L257 L119 L10022 L170 L51 L266 L27 L10113 L210 L270 L6 L30795 L40731 L755 L838"/>
    <route id="route44" edges="L2013 L40730 L136 L176 L52"/>
    <route id="route45" edges="L2013 L40730 L136 L176 L154 L153 L151 L148 L54 L596 L560"/>
    <route id="route46" edges="L2013 L40730 L136 L176 L154 L153 L151 L148 L10195 L141 L142 L137 L49 L134 L132 L30933"/>
    <route id="route47" edges="L650 L652 L53 L83 L158 L230 L220 L25 L237 L250 L37 L193#1 L193#2 L197#1 L197#2 L30 L10059 L40274 L40407 L40524 L1163 L40173 L40304 L40415 L40453 L40172 L40303 L2584 L900190313"/>
    <route id="route48" edges="L650 L652 L53 L10195 L141 L142 L137 L49 L134 L132 L20149 L30927 L30940 L68 L30523 L522 L30521 L30544 L843"/>
    <route id="route49" edges="L650 L652 L53 L10195 L141 L142 L137 L49 L10130 L10189 L72 L39 L636 L623 L632 L822"/>
    <route id="route50" edges="L650 L652 L53 L83 L158 L230 L220 L96 L98 L637 L625"/>
    <route id="route51" edges="L650 L652 L53 L145 L221 L155 L10017 L118 L119 L10022 L170 L51 L266 L27 L10113 L210 L270 L6 L30795 L40731 L755 L838"/>
    <route id="route52" edges="L650 L652 L53 L83 L158 L230 L220 L45 L10175 L247 L174 L161 L241 L162 L214 L10223 L10029 L278 L2127 L3783 L2149"/>
    <route id="route53" edges="L650 L652 L53 L145 L221 L155 L10017 L10168 L3608"/>
    <route id="route54" edges="L40122 L40146 L790 L40710 L226 L184 L229 L10114 L10256 L160 L245 L173 L10217 L25 L237 L250 L37 L193#1 L193#2 L197#1 L197#2 L30 L10059 L40274 L40407 L40524 L1163 L40173 L40304 L40415 L40453 L40172 L40303 L2584 L900190313"/>
    <route id="route55" edges="L40122 L40146 L790 L40710 L226 L184 L229 L10114 L10256 L160 L245 L173 L10217 L25 L237 L250 L37 L193#1 L193#2 L197#1 L197#2 L30 L58#1 L58#2 L68 L30523 L522 L30521 L30544 L843"/>
    <route id="route56" edges="L40122 L40146 L790 L40710 L226 L184 L229 L10114 L10256 L160 L245 L173 L10217 L25 L237 L250 L37 L193#1 L193#2 L197#1 L197#2 L72 L39 L636 L623 L632 L822"/>
    <route id="route57" edges="L40122 L40146 L790 L40710 L226 L184 L30767 L10029 L278 L2127 L3783 L2149"/>
    <route id="route58" edges="L40122 L40146 L790 L40710 L226 L184 L30767 L196 L10187 L10010 L120 L10014 L10018 L7 L10168 L3608"/>
    <route id="route59" edges="L40122 L40146 L790 L40710 L226 L184 L30767 L196 L10187 L10010 L120 L10014 L10018 L7 L52"/>
    <route id="route60" edges="L40122 L40146 L790 L40710 L226 L184 L30767 L196 L10187 L10010 L120 L10014 L10018 L7 L154 L153 L151 L148 L54 L596 L560"/>
    <route id="route61" edges="L40493 L10032 L133 L133.25 L10130 L10189 L30 L10059 L40274 L40407 L40524 L1163 L40173 L40304 L40415 L40453 L40172 L40303 L2584 L900190313"/>
    <route id="route62" edges="L40493 L10032 L10172 L10178 L10189 L30 L10059 L40274 L40407 L40524 L1163 L40173 L40304 L40415 L40453 L40172 L40303 L2584 L900190313"/>
    <route id="route63" edges="L40494 L40405 L629 L623 L632 L822"/>
    <route id="route64" edges="L30843 L544 L521 L30522 L523 L30032 L60 L73 L10149#1 L10149#2 L138 L133 L133.25 L10130 L10189 L30 L10059 L40274 L40407 L40524 L1163 L40173 L40304 L40415 L40453 L40172 L40303 L2584 L900190313"/>
    <route id="route65" edges="L30843 L544 L521 L30522 L523 L30032 L60 L73 L10149#1 L10149#2 L138 L133 L133.25 L135 L140#1 L140#2 L185 L139 L144 L143 L145 L221 L155 L10017 L10168 L3608"/>
    <route id="route66" edges="L30843 L544 L521 L30522 L523 L30032 L60 L73 L10149#1 L10149#2 L138 L133 L133.25 L135 L140#1 L140#2 L185 L139 L144 L143 L145 L221 L155 L10017 L52"/>
    <route id="route67" edges="L30843 L544 L521 L30522 L523 L30032 L60 L73 L10149#1 L10149#2 L138 L133 L133.25 L135 L140#1 L140#2 L185 L139 L144 L143 L54 L596 L560"/>
    <route id="route68" edges="L558 L575 L565 L570 L40 L30 L10059 L40274 L40407 L40524 L1163 L40173 L40304 L40415 L40453 L40172 L40303 L2584 L900190313"/>
    <route id="route69" edges="L558 L575 L565 L570 L40 L10150 L182 L181 L243 L240 L45 L10175 L247 L174 L161 L241 L162 L214 L10223 L10113 L210 L270 L6 L30795 L40731 L755 L838"/>
    <route id="route70" edges="L558 L575 L565 L570 L40 L10150 L182 L181 L243 L240 L45 L10175 L247 L174 L161 L241 L162 L214 L10223 L10029 L278 L2127 L3783 L2149"/>
    <route id="route71" edges="L558 L575 L565 L570 L40 L10150 L182 L181 L243 L240 L4 L70 L54 L596 L600 L652 L53 L145 L221 L155 L10017 L10168 L3608"/>
    <route id="route72" edges="L558 L575 L565 L570 L40 L10150 L182 L181 L243 L240 L4 L70 L54 L596 L600 L652 L53 L145 L221 L155 L10017 L52"/>
    <route id="route73" edges="L558 L575 L565 L570 L40 L10150 L182 L181 L243 L240 L4 L70 L54 L596 L560"/>
    <route id="route74" edges="L67 L138 L133 L133.25 L135 L140#1 L140#2 L185 L139 L144 L143 L145 L221 L155 L10017 L10168 L3608"/>
    <route id="route75" edges="L67 L138 L133 L133.25 L10130 L10189 L30 L10059 L40274 L40407 L40524 L1163 L40173 L40304 L40415 L40453 L40172 L40303 L2584 L900190313"/>
    <route id="route76" edges="L67 L138 L133 L133.25 L10130 L10189 L72 L39 L636 L623 L632 L822"/>
    <route id="route77" edges="L569 L568 L579 L578 L10100 L97 L25 L237 L250 L37 L193#1 L193#2 L197#1 L197#2 L30 L10059 L40274 L40407 L40524 L1163 L40173 L40304 L40415 L40453 L40172 L40303 L2584 L900190313"/>
    <route id="route78" edges="L569 L568 L579 L578 L10100 L97 L45 L10175 L247 L174 L161 L241 L162 L214 L10223 L10113 L210 L270 L6 L30795 L40731 L755 L838"/>
    <route id="route79" edges="L569 L568 L579 L578 L10100 L97 L45 L10175 L247 L174 L161 L241 L162 L214 L10223 L10029 L278 L2127 L3783 L2149"/>
    <route id="route80" edges="L569 L568 L579 L578 L10100 L97 L4 L70 L54 L596 L600 L652 L53 L145 L221 L155 L10017 L10168 L3608"/>
    <route id="route81" edges="L569 L568 L579 L578 L10100 L97 L4 L70 L54 L596 L600 L652 L53 L145 L221 L155 L10017 L52"/>
    <route id="route82" edges="L569 L568 L579 L578 L10100 L97 L4 L70 L54 L596 L560"/>
    <route id="route83" edges="L3806 L2132 L279 L126 L61 L225 L10114 L10256 L160 L245 L173 L10217 L25 L237 L250 L37 L193#1 L193#2 L197#1 L197#2 L30 L10059 L40274 L40407 L40524 L1163 L40173 L40304 L40415 L40453 L40172 L40303 L2584 L900190313"/>
    <route id="route84" edges="L3806 L2132 L279 L126 L61 L225 L10114 L10256 L160 L245 L173 L10217 L25 L237 L250 L37 L193#1 L193#2 L197#1 L197#2 L30 L58#1 L58#2 L68 L30523 L522 L30521 L30544 L843"/>
    <route id="route85" edges="L3806 L2132 L279 L126 L61 L225 L10114 L10256 L160 L245 L173 L10217 L25 L237 L250 L37 L193#1 L193#2 L197#1 L197#2 L72 L39 L636 L623 L632 L822"/>
    <route id="route86" edges="L3806 L2132 L279 L126 L61 L225 L10114 L10256 L160 L245 L173 L10217 L96 L98 L637 L625"/>
    <route id="route87" edges="L3806 L2132 L279 L126 L227 L210 L270 L6 L30795 L40731 L755 L838"/>
    <route id="route88" edges="L3806 L2132 L279 L126 L61 L196 L10187 L10010 L120 L10014 L10018 L7 L52"/>
    <route id="route89" edges="L3806 L2132 L279 L126 L61 L196 L10187 L10010 L120 L10014 L10018 L7 L154 L153 L151 L148 L54 L596 L560"/>
    <route id="route90" edges="L142 L137 L49 L10130 L10189 L30 L10059 L40274 L40407 L40524 L1163 L40173 L40304 L40415 L40453 L40172 L40303 L2584 L900190313"/>
    <route id="route91" edges="L142 L137 L179 L10188 L10189 L30 L10059 L40274 L40407 L40524 L1163 L40173 L40304 L40415 L40453 L40172 L40303 L2584 L900190313"/>
    <route id="route92" edges="L40539 L40523 L40279 L40412 L10009 L232 L249 L239 L10150 L182 L181 L243 L240 L96 L98 L637 L625"/>
    <route id="route93" edges="L40539 L40523 L40279 L40412 L10009 L232 L249 L239 L10150 L182 L181 L243 L240 L45 L10175 L247 L174 L161 L241 L162 L214 L10223 L10113 L210 L270 L6 L30795 L40731 L755 L838"/>
    <route id="route94" edges="L40539 L40523 L40279 L40412 L10009 L232 L249 L239 L10150 L182 L181 L243 L240 L45 L10175 L247 L174 L161 L241 L162 L214 L10223 L10029 L278 L2127 L3783 L2149"/>
    <route id="route95" edges="L40539 L40523 L40279 L40412 L10009 L232 L249 L239 L10150 L182 L181 L243 L240 L4 L70 L54 L596 L560"/>
    <route id="route96" edges="L900190311 L4271 L40540 L40541 L40535 L40536 L40537 L40538 L40539 L40523 L40279 L40412 L10009 L232 L249 L239 L10150 L182 L181 L243 L240 L96 L98 L637 L625"/>
    <route id="route97" edges="L900190311 L4271 L40540 L40541 L40535 L40536 L40537 L40538 L40539 L40523 L40279 L40412 L10009 L232 L249 L239 L10150 L182 L181 L243 L240 L45 L10175 L247 L174 L161 L241 L162 L214 L10223 L10113 L210 L270 L6 L30795 L40731 L755 L838"/>
    <route id="route98" edges="L900190311 L4271 L40540 L40541 L40535 L40536 L40537 L40538 L40539 L40523 L40279 L40412 L10009 L232 L249 L239 L10150 L182 L181 L243 L240 L45 L10175 L247 L174 L161 L241 L162 L214 L10223 L10029 L278 L2127 L3783 L2149"/>
    <route id="route99" edges="L900190311 L4271 L40540 L40541 L40535 L40536 L40537 L40538 L40539 L40523 L40279 L40412 L10009 L232 L129 L10012 L10219 L133 L133.25 L135 L140#1 L140#2 L185 L139 L144 L143 L145 L221 L155 L10017 L10168 L3608"/>
    <route id="route100" edges="L900190311 L4271 L40540 L40541 L40535 L40536 L40537 L40538 L40539 L40523 L40279 L40412 L10009 L232 L129 L10012 L10219 L133 L133.25 L135 L140#1 L140#2 L185 L139 L144 L143 L145 L221 L155 L10017 L52"/>
    <route id="route101" edges="L900190311 L4271 L40540 L40541 L40535 L40536 L40537 L40538 L40539 L40523 L40279 L40412 L10009 L232 L249 L239 L10150 L182 L181 L243 L240 L4 L70 L54 L596 L560"/>
    <route id="route102" edges="L90185 L76 L143 L83 L158 L230 L220 L96 L98 L637 L625"/>
    <flow begin="53100" end="54000" departPos="free" departLane="best" id="1" vehsPerHour="200.0" route="route1" type="Car"/>
    <flow begin="53100" end="54000" departPos="free" departLane="best" id="2" vehsPerHour="300.0" route="route4" type="Car"/>
    <flow begin="53100" end="54000" departPos="free" departLane="best" id="3" vehsPerHour="100.0" route="route5" type="Car"/>
    <flow begin="53100" end="54000" departPos="free" departLane="best" id="4" vehsPerHour="100.0" route="route6" type="Car"/>
    <flow begin="53100" end="54000" departPos="free" departLane="best" id="5" vehsPerHour="1000.0" route="route7" type="Car"/>
    <flow begin="53100" end="54000" departPos="free" departLane="best" id="6" vehsPerHour="100.0" route="route8" type="Car"/>
    <flow begin="53100" end="54000" departPos="free" departLane="best" id="7" vehsPerHour="100.0" route="route9" type="Car"/>
    <flow begin="53100" end="54000" departPos="free" departLane="best" id="8" vehsPerHour="100.0" route="route10" type="Car"/>
    <flow begin="53100" end="54000" departPos="free" departLane="best" id="9" vehsPerHour="100.0" route="route11" type="Car"/>
    <flow begin="53100" end="54000" departPos="free" departLane="best" id="10" vehsPerHour="894.0" route="route12" type="Car"/>
    <flow begin="53100" end="54000" departPos="free" departLane="best" id="11" vehsPerHour="100.0" route="route14" type="Car"/>
    <flow begin="53100" end="54000" departPos="free" departLane="best" id="12" vehsPerHour="400.0" route="route19" type="Car"/>
    <flow begin="53100" end="54000" departPos="free" departLane="best" id="13" vehsPerHour="50.0" route="route20" type="Car"/>
    <flow begin="53100" end="54000" departPos="free" departLane="best" id="14" vehsPerHour="100.0" route="route21" type="Car"/>
    <flow begin="53100" end="54000" departPos="free" departLane="best" id="15" vehsPerHour="100.0" route="route22" type="Car"/>
    <flow begin="53100" end="54000" departPos="free" departLane="best" id="16" vehsPerHour="100.0" route="route23" type="Car"/>
    <flow begin="53100" end="54000" departPos="free" departLane="best" id="17" vehsPerHour="313.0" route="route24" type="Car"/>
    <flow begin="53100" end="54000" departPos="free" departLane="best" id="18" vehsPerHour="50.0" route="route25" type="Car"/>
    <flow begin="53100" end="54000" departPos="free" departLane="best" id="19" vehsPerHour="50.0" route="route27" type="Car"/>
    <flow begin="53100" end="54000" departPos="free" departLane="best" id="20" vehsPerHour="21.0" route="route28" type="Car"/>
    <flow begin="53100" end="54000" departPos="free" departLane="best" id="21" vehsPerHour="100.0" route="route31" type="Car"/>
    <flow begin="53100" end="54000" departPos="free" departLane="best" id="22" vehsPerHour="100.0" route="route32" type="Car"/>
    <flow begin="53100" end="54000" departPos="free" departLane="best" id="23" vehsPerHour="100.0" route="route33" type="Car"/>
    <flow begin="53100" end="54000" departPos="free" departLane="best" id="24" vehsPerHour="100.0" route="route34" type="Car"/>
    <flow begin="53100" end="54000" departPos="free" departLane="best" id="25" vehsPerHour="100.0" route="route35" type="Car"/>
    <flow begin="53100" end="54000" departPos="free" departLane="best" id="26" vehsPerHour="100.0" route="route36" type="Car"/>
    <flow begin="53100" end="54000" departPos="free" departLane="best" id="27" vehsPerHour="100.0" route="route37" type="Car"/>
    <flow begin="53100" end="54000" departPos="free" departLane="best" id="28" vehsPerHour="100.0" route="route38" type="Car"/>
    <flow begin="53100" end="54000" departPos="free" departLane="best" id="29" vehsPerHour="580.0" route="route39" type="Car"/>
    <flow begin="53100" end="54000" departPos="free" departLane="best" id="30" vehsPerHour="11.0" route="route40" type="Car"/>
    <flow begin="53100" end="54000" departPos="free" departLane="best" id="31" vehsPerHour="11.0" route="route41" type="Car"/>
    <flow begin="53100" end="54000" departPos="free" departLane="best" id="32" vehsPerHour="11.0" route="route42" type="Car"/>
    <flow begin="53100" end="54000" departPos="free" departLane="best" id="33" vehsPerHour="11.0" route="route43" type="Car"/>
    <flow begin="53100" end="54000" departPos="free" departLane="best" id="34" vehsPerHour="11.0" route="route44" type="Car"/>
    <flow begin="53100" end="54000" departPos="free" departLane="best" id="35" vehsPerHour="11.0" route="route45" type="Car"/>
    <flow begin="53100" end="54000" departPos="free" departLane="best" id="36" vehsPerHour="20.0" route="route46" type="Car"/>
    <flow begin="53100" end="54000" departPos="free" departLane="best" id="37" vehsPerHour="100.0" route="route50" type="Car"/>
    <flow begin="53100" end="54000" departPos="free" departLane="best" id="38" vehsPerHour="100.0" route="route52" type="Car"/>
    <flow begin="53100" end="54000" departPos="free" departLane="best" id="39" vehsPerHour="600.0" route="route54" type="Car"/>
    <flow begin="53100" end="54000" departPos="free" departLane="best" id="40" vehsPerHour="412.0" route="route57" type="Car"/>
    <flow begin="53100" end="54000" departPos="free" departLane="best" id="41" vehsPerHour="4.0" route="route58" type="Car"/>
    <flow begin="53100" end="54000" departPos="free" departLane="best" id="42" vehsPerHour="200.0" route="route59" type="Car"/>
    <flow begin="53100" end="54000" departPos="free" departLane="best" id="43" vehsPerHour="65.32" route="route61" type="Car"/>
    <flow begin="53100" end="54000" departPos="free" departLane="best" id="44" vehsPerHour="26.68" route="route62" type="Car"/>
    <flow begin="53100" end="54000" departPos="free" departLane="best" id="45" vehsPerHour="134.0" route="route66" type="Car"/>
    <flow begin="53100" end="54000" departPos="free" departLane="best" id="46" vehsPerHour="500.0" route="route68" type="Car"/>
    <flow begin="53100" end="54000" departPos="free" departLane="best" id="47" vehsPerHour="498.0" route="route70" type="Car"/>
    <flow begin="53100" end="54000" departPos="free" departLane="best" id="48" vehsPerHour="200.0" route="route73" type="Car"/>
    <flow begin="53100" end="54000" departPos="free" departLane="best" id="49" vehsPerHour="46.0" route="route74" type="Car"/>
    <flow begin="53100" end="54000" departPos="free" departLane="best" id="50" vehsPerHour="46.0" route="route75" type="Car"/>
    <flow begin="53100" end="54000" departPos="free" departLane="best" id="51" vehsPerHour="250.0" route="route77" type="Car"/>
    <flow begin="53100" end="54000" departPos="free" departLane="best" id="52" vehsPerHour="20.0" route="route79" type="Car"/>
    <flow begin="53100" end="54000" departPos="free" departLane="best" id="53" vehsPerHour="20.0" route="route80" type="Car"/>
    <flow begin="53100" end="54000" departPos="free" departLane="best" id="54" vehsPerHour="1400.0" route="route82" type="Car"/>
    <flow begin="53100" end="54000" departPos="free" departLane="best" id="55" vehsPerHour="1007.0" route="route83" type="Car"/>
    <flow begin="53100" end="54000" departPos="free" departLane="best" id="56" vehsPerHour="176.0" route="route84" type="Car"/>
    <flow begin="53100" end="54000" departPos="free" departLane="best" id="57" vehsPerHour="500.0" route="route88" type="Car"/>
    <flow begin="53100" end="54000" departPos="free" departLane="best" id="58" vehsPerHour="28.5" route="route90" type="Car"/>
    <flow begin="53100" end="54000" departPos="free" departLane="best" id="59" vehsPerHour="1.5" route="route91" type="Car"/>
    <flow begin="53100" end="54000" departPos="free" departLane="best" id="60" vehsPerHour="300.0" route="route92" type="Car"/>
    <flow begin="53100" end="54000" departPos="free" departLane="best" id="61" vehsPerHour="1500.0" route="route93" type="Car"/>
    <flow begin="53100" end="54000" departPos="free" departLane="best" id="62" vehsPerHour="1500.0" route="route94" type="Car"/>
    <flow begin="53100" end="54000" departPos="free" departLane="best" id="63" vehsPerHour="541.0" route="route95" type="Car"/>
    <flow begin="54000" end="54900" departPos="free" departLane="best" id="64" vehsPerHour="6.0" route="route12" type="Car"/>
    <flow begin="54000" end="54900" departPos="free" departLane="best" id="65" vehsPerHour="55.0" route="route13" type="Car"/>
    <flow begin="54000" end="54900" departPos="free" departLane="best" id="66" vehsPerHour="6.0" route="route14" type="Car"/>
    <flow begin="54000" end="54900" departPos="free" departLane="best" id="67" vehsPerHour="106.0" route="route18" type="Car"/>
    <flow begin="54000" end="54900" departPos="free" departLane="best" id="68" vehsPerHour="6.0" route="route24" type="Car"/>
    <flow begin="54000" end="54900" departPos="free" departLane="best" id="69" vehsPerHour="4.0" route="route25" type="Car"/>
    <flow begin="54000" end="54900" departPos="free" departLane="best" id="70" vehsPerHour="58.0" route="route27" type="Car"/>
    <flow begin="54000" end="54900" departPos="free" departLane="best" id="71" vehsPerHour="98.0" route="route28" type="Car"/>
    <flow begin="54000" end="54900" departPos="free" departLane="best" id="72" vehsPerHour="12.0" route="route29" type="Car"/>
    <flow begin="54000" end="54900" departPos="free" departLane="best" id="73" vehsPerHour="372.0" route="route30" type="Car"/>
    <flow begin="54000" end="54900" departPos="free" departLane="best" id="74" vehsPerHour="4.0" route="route39" type="Car"/>
    <flow begin="54000" end="54900" departPos="free" departLane="best" id="75" vehsPerHour="48.0" route="route42" type="Car"/>
    <flow begin="54000" end="54900" departPos="free" departLane="best" id="76" vehsPerHour="10.0" route="route45" type="Car"/>
    <flow begin="54000" end="54900" departPos="free" departLane="best" id="77" vehsPerHour="16.0" route="route47" type="Car"/>
    <flow begin="54000" end="54900" departPos="free" departLane="best" id="78" vehsPerHour="2.0" route="route48" type="Car"/>
    <flow begin="54000" end="54900" departPos="free" departLane="best" id="79" vehsPerHour="2.0" route="route49" type="Car"/>
    <flow begin="54000" end="54900" departPos="free" departLane="best" id="80" vehsPerHour="420.0" route="route50" type="Car"/>
    <flow begin="54000" end="54900" departPos="free" departLane="best" id="81" vehsPerHour="452.0" route="route51" type="Car"/>
    <flow begin="54000" end="54900" departPos="free" departLane="best" id="82" vehsPerHour="430.0" route="route52" type="Car"/>
    <flow begin="54000" end="54900" departPos="free" departLane="best" id="83" vehsPerHour="38.0" route="route53" type="Car"/>
    <flow begin="54000" end="54900" departPos="free" departLane="best" id="84" vehsPerHour="1194.0" route="route54" type="Car"/>
    <flow begin="54000" end="54900" departPos="free" departLane="best" id="85" vehsPerHour="242.0" route="route55" type="Car"/>
    <flow begin="54000" end="54900" departPos="free" departLane="best" id="86" vehsPerHour="176.0" route="route56" type="Car"/>
    <flow begin="54000" end="54900" departPos="free" departLane="best" id="87" vehsPerHour="132.0" route="route57" type="Car"/>
    <flow begin="54000" end="54900" departPos="free" departLane="best" id="88" vehsPerHour="44.0" route="route58" type="Car"/>
    <flow begin="54000" end="54900" departPos="free" departLane="best" id="89" vehsPerHour="158.0" route="route59" type="Car"/>
    <flow begin="54000" end="54900" departPos="free" departLane="best" id="90" vehsPerHour="38.0" route="route60" type="Car"/>
    <flow begin="54000" end="54900" departPos="free" departLane="best" id="91" vehsPerHour="4.26" route="route61" type="Car"/>
    <flow begin="54000" end="54900" departPos="free" departLane="best" id="92" vehsPerHour="1.74" route="route62" type="Car"/>
    <flow begin="54000" end="54900" departPos="free" departLane="best" id="93" vehsPerHour="20.0" route="route63" type="Car"/>
    <flow begin="54000" end="54900" departPos="free" departLane="best" id="94" vehsPerHour="4.0" route="route64" type="Car"/>
    <flow begin="54000" end="54900" departPos="free" departLane="best" id="95" vehsPerHour="492.0" route="route65" type="Car"/>
    <flow begin="54000" end="54900" departPos="free" departLane="best" id="96" vehsPerHour="886.0" route="route66" type="Car"/>
    <flow begin="54000" end="54900" departPos="free" departLane="best" id="97" vehsPerHour="8.0" route="route67" type="Car"/>
    <flow begin="54000" end="54900" departPos="free" departLane="best" id="98" vehsPerHour="1162.0" route="route68" type="Car"/>
    <flow begin="54000" end="54900" departPos="free" departLane="best" id="99" vehsPerHour="42.0" route="route69" type="Car"/>
    <flow begin="54000" end="54900" departPos="free" departLane="best" id="100" vehsPerHour="94.0" route="route70" type="Car"/>
    <flow begin="54000" end="54900" departPos="free" departLane="best" id="101" vehsPerHour="2.0" route="route71" type="Car"/>
    <flow begin="54000" end="54900" departPos="free" departLane="best" id="102" vehsPerHour="14.0" route="route72" type="Car"/>
    <flow begin="54000" end="54900" departPos="free" departLane="best" id="103" vehsPerHour="6.0" route="route73" type="Car"/>
    <flow begin="54000" end="54900" departPos="free" departLane="best" id="104" vehsPerHour="372.0" route="route74" type="Car"/>
    <flow begin="54000" end="54900" departPos="free" departLane="best" id="105" vehsPerHour="8.0" route="route75" type="Car"/>
    <flow begin="54000" end="54900" departPos="free" departLane="best" id="106" vehsPerHour="278.0" route="route77" type="Car"/>
    <flow begin="54000" end="54900" departPos="free" departLane="best" id="107" vehsPerHour="192.0" route="route78" type="Car"/>
    <flow begin="54000" end="54900" departPos="free" departLane="best" id="108" vehsPerHour="186.0" route="route79" type="Car"/>
    <flow begin="54000" end="54900" departPos="free" departLane="best" id="109" vehsPerHour="20.0" route="route80" type="Car"/>
    <flow begin="54000" end="54900" departPos="free" departLane="best" id="110" vehsPerHour="12.0" route="route81" type="Car"/>
    <flow begin="54000" end="54900" departPos="free" departLane="best" id="111" vehsPerHour="556.0" route="route82" type="Car"/>
    <flow begin="54000" end="54900" departPos="free" departLane="best" id="112" vehsPerHour="2.0" route="route83" type="Car"/>
    <flow begin="54000" end="54900" departPos="free" departLane="best" id="113" vehsPerHour="2.0" route="route88" type="Car"/>
    <flow begin="54000" end="54900" departPos="free" departLane="best" id="114" vehsPerHour="1.9" route="route90" type="Car"/>
    <flow begin="54000" end="54900" departPos="free" departLane="best" id="115" vehsPerHour="0.1" route="route91" type="Car"/>
    <flow begin="54000" end="54900" departPos="free" departLane="best" id="116" vehsPerHour="2.0" route="route96" type="Car"/>
    <flow begin="54000" end="54900" departPos="free" departLane="best" id="117" vehsPerHour="18.0" route="route97" type="Car"/>