<?xml version="1.0" encoding="UTF-8"?>
<routes>
    <vType accel="2.0" decel="2.5" id="Car" length="4.62" minGap="2.37" maxSpeed="12.5" sigma="0.7"/>
    <route id="route1" edges="L10195 L141 L142 L137 L49 L10130 L10189 L30 L10059 L40274 L40407 L40524 L1163 L40173 L40304 L40415 L40453 L40172 L40303 L2584 L900190313"/>
    <route id="route2" edges="L83 L158 L230 L220 L96 L98 L637 L625 L40077"/>
    <route id="route3" edges="L10175 L247 L174 L161 L241 L162 L214 L10223 L10113 L210 L270 L6 L30795 L40731 L755 L838"/>
    <route id="route4" edges="L45 L10175 L247 L174 L161 L241 L162 L214 L10223 L10029 L278 L2127 L3783 L2149"/>
    <route id="route5" edges="L25 L237 L250 L37 L193#1 L193#2 L197#1 L197#2 L30 L10059 L40274 L40407 L40524 L1163 L40173 L40304 L40415 L40453 L40172 L40303 L2584 L900190313"/>
    <route id="route6" edges="L25 L237 L250 L37 L193#1 L193#2 L197#1 L197#2 L30 L58#1 L58#2 L68 L30523 L522 L30521 L30544 L843"/>
    <route id="route7" edges="L4 L70 L54 L596 L600 L652 L53 L145 L221 L155 L10017 L10168 L3608"/>
    <route id="route8" edges="L4 L70 L54 L596 L560 L40719 L40488 L40487 L40486 L40485 L40484 L40491"/>
    <route id="route9" edges="L4 L70 L54 L596 L560"/>
    <route id="route10" edges="L64 L10130 L10189 L30 L10059 L40274 L40407 L40524 L1163 L40173 L40304 L40415 L40453 L40172 L40303 L2584 L900190313"/>
    <route id="route11" edges="L64 L10130 L10189 L72 L39 L636 L623 L632 L822"/>
    <route id="route12" edges="L10130 L10189 L30 L10059 L40274 L40407 L40524 L1163 L40173 L40304 L40415 L40453 L40172 L40303 L2584 L900190313"/>
    <route id="route13" edges="L10130 L10189 L72 L39 L636 L623 L632 L822"/>
    <route id="route14" edges="L10150 L182 L181 L243 L240 L96 L98 L637 L625 L40077"/>
    <route id="route15" edges="L10150 L182 L181 L243 L240 L45 L10175 L247 L174 L161 L241 L162 L214 L10223 L10113 L210 L270 L6 L30795 L40731 L755 L838"/>
    <route id="route16" edges="L10150 L182 L181 L243 L240 L45 L10175 L247 L174 L161 L241 L162 L214 L10223 L10029 L278 L2127 L3783 L2149"/>
    <route id="route17" edges="L844 L821 L834 L10199 L154 L153 L151 L148 L10195 L141 L142 L137 L49 L10130 L10189 L30 L10059 L40274 L40407 L40524 L1163 L40173 L40304 L40415 L40453 L40172 L40303 L2584 L900190313"/>
    <route id="route18" edges="L844 L821 L834 L10199 L154 L153 L151 L148 L10195 L141 L142 L137 L49 L134 L132 L20149 L30927 L30940 L68 L30523 L522 L30521 L30544 L843"/>
    <route id="route19" edges="L745 L680 L729 L696 L692 L650 L652 L53 L83 L158 L230 L220 L96 L98 L637 L625 L40077"/>
    <route id="route20" edges="L844 L821 L834 L10199 L118 L119 L10022 L170 L51 L10057 L20057 L6 L30795 L40731 L755 L838"/>
    <route id="route21" edges="L154 L153 L151 L148 L10195 L141 L142 L137 L49 L10130 L10189 L30 L10059 L40274 L40407 L40524 L1163 L40173 L40304 L40415 L40453 L40172 L40303 L2584 L900190313"/>
    <route id="route22" edges="L154 L153 L151 L148 L10195 L141 L142 L137 L49 L134 L132 L20149 L30927 L30940 L68 L30523 L522 L30521 L30544 L843"/>
    <route id="route23" edges="L154 L153 L151 L148 L10195 L141 L142 L137 L49 L10130 L10189 L72 L39 L636 L623 L632 L822"/>
    <route id="route24" edges="L154 L153 L151 L148 L83 L158 L230 L220 L96 L98 L637 L625 L40077"/>
    <route id="route25" edges="L52 L745 L680 L729 L696 L692 L703"/>
    <route id="route26" edges="L225 L10114 L10256 L160 L245 L173 L10217 L25 L237 L250 L37 L193#1 L193#2 L197#1 L197#2 L30 L10059 L40274 L40407 L40524 L1163 L40173 L40304 L40415 L40453 L40172 L40303 L2584 L900190313"/>
    <route id="route27" edges="L225 L10114 L10256 L160 L245 L173 L10217 L25 L237 L250 L37 L193#1 L193#2 L197#1 L197#2 L72 L39 L636 L623 L632 L822"/>
    <route id="route28" edges="L196 L10187 L10010 L120 L10014 L10018 L7 L52 L745 L680 L729 L696 L692 L703"/>
    <route id="route29" edges="L2013 L40730 L136 L176 L154 L153 L151 L148 L10195 L141 L142 L137 L49 L10130 L10189 L30 L10059 L40274 L40407 L40524 L1163 L40173 L40304 L40415 L40453 L40172 L40303 L2584 L900190313"/>
    <route id="route30" edges="L2013 L40730 L136 L176 L154 L153 L151 L148 L10195 L141 L142 L137 L49 L134 L132 L20149 L30927 L30940 L68 L30523 L522 L30521 L30544 L843"/>
    <route id="route31" edges="L2013 L40730 L136 L176 L154 L153 L151 L148 L10195 L141 L142 L137 L49 L10130 L10189 L72 L39 L636 L623 L632 L822"/>
    <route id="route32" edges="L2013 L40730 L136 L176 L154 L153 L151 L148 L83 L158 L230 L220 L96 L98 L637 L625 L40077"/>
    <route id="route33" edges="L2013 L40730 L136 L257 L119 L10022 L170 L51 L10057 L20057 L6 L30795 L40731 L755 L838"/>
    <route id="route34" edges="L2013 L40730 L136 L176 L52"/>
    <route id="route35" edges="L2013 L40730 L136 L176 L52 L745 L680 L729 L696 L692 L703"/>
    <route id="route36" edges="L2013 L40730 L136 L176 L154 L153 L151 L148 L10195 L141 L142 L137 L49 L134 L132 L30933"/>
    <route id="route37" edges="L40719 L40488 L40718 L650 L652 L53 L83 L158 L230 L220 L96 L98 L637 L625 L40077"/>
    <route id="route38" edges="L40719 L40488 L40718 L650 L652 L53 L83 L158 L230 L220 L45 L10175 L247 L174 L161 L241 L162 L214 L10223 L10029 L278 L2127 L3783 L2149"/>
    <route id="route39" edges="L40122 L40146 L790 L40710 L226 L184 L229 L10114 L10256 L160 L245 L173 L10217 L25 L237 L250 L37 L193#1 L193#2 L197#1 L197#2 L30 L10059 L40274 L40407 L40524 L1163 L40173 L40304 L40415 L40453 L40172 L40303 L2584 L900190313"/>
    <route id="route40" edges="L40122 L40146 L790 L40710 L226 L184 L30767 L10029 L278 L2127 L3783 L2149"/>
    <route id="route41" edges="L40122 L40146 L790 L40710 L226 L10046 L20046 L10010 L120 L10014 L10018 L7 L10168 L3608"/>
    <route id="route42" edges="L40122 L40146 L790 L40710 L226 L10046 L20046 L10010 L120 L10014 L10018 L7 L52"/>
    <route id="route43" edges="L40493 L10032 L133 L133.25 L10130 L10189 L30 L10059 L40274 L40407 L40524 L1163 L40173 L40304 L40415 L40453 L40172 L40303 L2584"/>
    <route id="route44" edges="L30843 L544 L521 L30522 L523 L30032 L60 L73 L10149#1 L10149#2 L138 L133 L133.25 L135 L140#1 L140#2 L185 L139 L144 L143 L145 L221 L155 L10017 L52"/>
    <route id="route45" edges="L828 L813 L558 L575 L565 L570 L40 L30 L10059 L40274 L40407 L40524 L1163 L40173 L40304 L40415 L40453 L40172 L40303 L2584 L900190313"/>
    <route id="route46" edges="L828 L813 L558 L575 L565 L570 L40 L10150 L182 L181 L243 L240 L45 L10175 L247 L174 L161 L241 L162 L214 L10223 L10029 L278 L2127 L3783 L2149"/>
    <route id="route47" edges="L828 L813 L558 L575 L565 L570 L40 L10150 L182 L181 L243 L240 L4 L70 L54 L596 L560"/>
    <route id="route48" edges="L67 L138 L133 L133.25 L135 L140#1 L140#2 L185 L139 L144 L143 L145 L221 L155 L10017 L10168 L3608"/>
    <route id="route49" edges="L67 L138 L133 L133.25 L10130 L10189 L30 L10059 L40274 L40407 L40524 L1163 L40173 L40304 L40415 L40453 L40172 L40303 L2584 L900190313"/>
    <route id="route50" edges="L569 L568 L579 L578 L10100 L97 L25 L237 L250 L37 L193#1 L193#2 L197#1 L197#2 L30 L10059 L40274 L40407 L40524 L1163 L40173 L40304 L40415 L40453 L40172 L40303 L2584 L900190313"/>
    <route id="route51" edges="L569 L568 L579 L578 L10100 L97 L45 L10175 L247 L174 L161 L241 L162 L214 L10223 L10029 L278 L2127 L3783 L2149"/>
    <route id="route52" edges="L569 L568 L579 L578 L10100 L97 L4 L70 L54 L596 L600 L652 L53 L145 L221 L155 L10017 L10168 L3608"/>
    <route id="route53" edges="L569 L568 L579 L578 L10100 L97 L4 L70 L54 L596 L560"/>
    <route id="route54" edges="L3806 L2132 L279 L126 L61 L225 L10114 L10256 L160 L245 L173 L10217 L25 L237 L250 L37 L193#1 L193#2 L197#1 L197#2 L30 L10059 L40274 L40407 L40524 L1163 L40173 L40304 L40415 L40453 L40172 L40303 L2584 L900190313"/>
    <route id="route55" edges="L3806 L2132 L279 L126 L61 L225 L10114 L10256 L160 L245 L173 L10217 L25 L237 L250 L37 L193#1 L193#2 L197#1 L197#2 L30 L58#1 L58#2 L68 L30523 L522 L30521 L30544 L843"/>
    <route id="route56" edges="L3806 L2132 L279 L126 L61 L196 L10187 L10010 L120 L10014 L10018 L7 L52"/>
    <route id="route57" edges="L90181 L48 L140#1 L140#2 L185 L139 L144 L143 L83 L158 L230 L220 L25 L237 L250 L37 L193#1 L193#2 L197#1 L197#2 L30 L10059 L40274 L40407 L40524 L1163 L40173 L40304 L40415 L40453 L40172 L40303 L2584 L900190313"/>
    <route id="route58" edges="L90181 L48 L140#1 L140#2 L185 L139 L144 L143 L83 L158 L230 L220 L96 L98 L637 L625 L647 L3658 L4386 L3709 L40497 L3722 L3726 L40723 L40580 L2197 L3847 L3854 L4395 L2225 L40553 L2201 L3764 L40253 L40385 L40445 L40471 L100004381 L900190308"/>
    <route id="route59" edges="L90181 L48 L140#1 L140#2 L185 L139 L144 L143 L145 L221 L155 L10017 L52 L844 L40167 L40298 L40716 L803 L842 L810 L786 L785 L3409 L3396 L3367 L3356 L3350 L3312 L1793 L3306 L3304 L1767 L1762 L3262 L3250 L1739 L3223 L1700 L1701 L3187 L1709 L1711 L23197 L23179 L23170 L3147 L1674 L3101 L3066 L3024 L3007 L1602 L2979 L12980 L12981 L2988 L12991 L12996 L2982 L4589 L4585 L22933 L4811 L900190246"/>
    <route id="route60" edges="L40539 L40523 L40279 L40412 L10009 L232 L249 L239 L10150 L182 L181 L243 L240 L96 L98 L637 L625 L40077"/>
    <route id="route61" edges="L40539 L40523 L40279 L40412 L10009 L232 L249 L239 L10150 L182 L181 L243 L240 L45 L10175 L247 L174 L161 L241 L162 L214 L10223 L10113 L210 L270 L6 L30795 L40731 L755 L838"/>
    <route id="route62" edges="L40539 L40523 L40279 L40412 L10009 L232 L249 L239 L10150 L182 L181 L243 L240 L45 L10175 L247 L174 L161 L241 L162 L214 L10223 L10029 L278 L2127 L3783 L2149"/>
    <route id="route63" edges="L40539 L40523 L40279 L40412 L10009 L232 L249 L239 L10150 L182 L181 L243 L240 L4 L70 L54 L596 L560"/>
    <route id="route64" edges="L900290201 L14956 L3405 L40732 L40735 L40736 L40737 L10028 L10123 L20123 L51 L266 L263 L278 L2127 L3783 L2149 L2152 L2153 L12162 L13816 L12165"/>
    <route id="route65" edges="L24909 L24906 L40783 L609 L601 L602 L40273 L40404 L64 L10130 L10189 L30 L10059 L40274 L40407 L40524 L1163 L40173 L40304 L40415 L40453 L40172 L40303 L2584 L900190313"/>
    <route id="route66" edges="L24909 L24906 L40783 L609 L601 L602 L40273 L40404 L64 L134 L132 L20149 L30927 L30940 L68 L30523 L522 L30521 L30544 L843 L40490 L40110 L900190293"/>
    <route id="route67" edges="L24909 L24906 L40783 L609 L601 L602 L40273 L40404 L64 L10130 L10189 L72 L39 L636 L623 L632 L822 L657 L4337 L1785 L3292 L3283 L1746 L3227 L3216 L3164 L1689 L14859"/>
    <route id="route68" edges="L900290215 L40065 L618 L619 L620 L40489 L40488 L40718 L650 L652 L53 L83 L158 L230 L220 L96 L98 L637 L625 L647 L3658 L4386 L3709 L40497 L3722 L3726 L40723 L40580 L2197 L3847 L3854 L4395 L2225 L40553 L2201 L3764 L40253 L40385 L40445 L40471 L100004381 L900190308"/>
    <route id="route69" edges="L14909 L635 L775 L777 L709 L707 L710 L776 L817 L826 L780 L731 L40738 L40737 L10028 L10123 L20123 L51 L10057 L20057 L6 L30795 L40731 L755 L838 L40143 L40144 L2350 L4034 L2397 L40595 L2431 L4100 L900190278"/>
    <route id="route70" edges="L900290215 L40065 L618 L619 L620 L40489 L40488 L40718 L650 L652 L53 L145 L221 L155 L10017 L10168 L3608 L2010 L40803 L3640 L3730 L2153 L12162 L13816 L12165"/>
    <route id="route71" edges="L900290215 L40065 L618 L619 L620 L40489 L40488 L40718 L650 L652 L53 L145 L221 L155 L10017 L10168 L3608 L2010 L3633 L3675 L3676 L13681 L14388 L13695 L2063 L3699 L2069 L3716 L3755 L13759 L12124"/>
    <route id="route72" edges="L900190271 L1211 L40175 L40306 L1193 L1188 L662 L40493 L10032 L133 L133.25 L10130 L10189 L30 L10059 L40274 L40407 L40524 L1163 L40173 L40304 L40415 L40453 L40172 L40303 L2584 L900190313"/>
    <route id="route73" edges="L900190271 L1211 L40175 L40306 L1193 L1188 L662 L40494 L40405 L629 L623 L632 L822 L657 L4337 L1785 L3292 L3283 L1746 L3227 L3216 L3164 L1689 L14859"/>
    <route id="route74" edges="L900190279 L4148 L2429 L40597 L2390 L4039 L2351 L797 L40129 L40146 L790 L40710 L226 L184 L229 L10114 L10256 L160 L245 L173 L10217 L25 L237 L250 L37 L193#1 L193#2 L197#1 L197#2 L30 L10059 L40274 L40407 L40524 L1163 L40173 L40304 L40415 L40453 L40172 L40303 L2584 L900190313"/>
    <route id="route75" edges="L900190279 L4148 L2429 L40597 L2390 L4039 L2351 L797 L40129 L40146 L790 L40710 L226 L184 L229 L10114 L10256 L160 L245 L173 L10217 L25 L237 L250 L37 L193#1 L193#2 L197#1 L197#2 L30 L58#1 L58#2 L68 L30523 L522 L30521 L30544 L843 L40490 L40110 L900190293"/>
    <route id="route76" edges="L900190279 L4148 L2429 L40597 L2390 L4039 L2351 L797 L40129 L40146 L790 L40710 L226 L184 L229 L10114 L10256 L160 L245 L173 L10217 L25 L237 L250 L37 L193#1 L193#2 L197#1 L197#2 L72 L39 L636 L623 L632 L822 L657 L4337 L1785 L3292 L3283 L1746 L3227 L3216 L3164 L1689 L14859"/>
    <route id="route77" edges="L900190279 L4148 L2429 L40597 L2390 L4039 L2351 L797 L40129 L40146 L790 L40710 L226 L184 L30767 L10029 L278 L2127 L3783 L2149 L2152 L2153 L12162 L13816 L12165"/>
    <route id="route78" edges="L900190279 L4148 L2429 L40597 L2390 L4039 L2351 L797 L40129 L40146 L790 L40710 L226 L184 L30767 L10029 L278 L2127 L3783 L2149 L2152 L2153 L12162 L13816 L12165 L3820 L3848 L2204 L3858 L23782"/>
    <route id="route79" edges="L900190279 L4148 L2429 L40597 L2390 L4039 L2351 L797 L40129 L40146 L790 L40710 L226 L10046 L20046 L10010 L120 L10014 L10018 L7 L52 L844 L821 L612"/>
    <route id="route80" edges="L900190279 L4148 L2429 L40597 L2390 L4039 L2351 L797 L40129 L40146 L790 L40710 L226 L10046 L20046 L10010 L120 L10014 L10018 L7 L52 L745 L680 L900290396"/>
    <route id="route81" edges="L900290291 L24798 L1535 L2861 L40605 L40512 L1517 L2842 L2785 L12761 L2713 L1437 L1433 L40515 L1424 L2698 L1409 L40519 L1398 L1396 L2662 L40199 L40330 L1353 L40542 L900190312"/>
    <route id="route82" edges="L900290293 L5154 L40746 L30843 L544 L521 L30522 L523 L30032 L60 L73 L10149#1 L10149#2 L138 L133 L133.25 L135 L140#1 L140#2 L185 L139 L144 L143 L145 L221 L155 L10017 L10168 L3608 L2010 L3633 L3675 L3676 L13681 L14388 L13695 L2063 L3699 L2069 L3716 L3755 L13759 L12124"/>
    <route id="route83" edges="L900290293 L5154 L40746 L30843 L544 L521 L30522 L523 L30032 L60 L73 L10149#1 L10149#2 L138 L133 L133.25 L135 L140#1 L140#2 L185 L139 L144 L143 L145 L221 L155 L10017 L52 L844 L821 L612"/>
    <route id="route84" edges="L900290293 L5154 L40746 L30843 L544 L521 L30522 L523 L30032 L60 L73 L10149#1 L10149#2 L138 L133 L133.25 L135 L140#1 L140#2 L185 L139 L144 L143 L54 L596 L600 L652 L723 L743"/>
    <route id="route85" edges="L900190309 L3635 L40356 L40435 L40466 L3762 L2118 L3852 L3866 L3864 L3860 L2205 L3853 L3846 L40578 L3847 L3854 L4395 L2225 L2227 L3870 L3851 L2199 L3844 L3831 L40231 L40363 L2017 L40220 L40351 L40252 L40384 L3418 L3387 L3324 L3261 L3162 L3098 L3010 L2902 L40208 L40339 L40430 L40463 L2671 L40199 L40330 L1353 L40542 L900190312"/>
    <route id="route86" edges="L900190309 L3635 L40356 L40435 L40466 L3762 L2118 L3852 L3866 L3864 L3860 L2205 L3853 L40235 L40367 L3803 L3797 L40577 L2144 L3800 L40234 L40366 L3948 L900190334 L200004004 L2352 L40590 L40593 L4057 L4068 L900190328"/>
    <route id="route87" edges="L900190309 L3635 L40356 L40435 L40466 L3762 L2118 L3852 L3866 L3864 L3860 L2205 L3853 L40235 L40367 L3803 L3797 L40577 L2144 L2146 L3801 L3829 L1264 L1271 L1279 L1267 L571 L40123 L790 L40710 L226 L184 L30767 L10029 L278 L2127 L3783 L2149 L2152 L2153 L12162 L13816 L12165"/>
    <route id="route88" edges="L900190309 L3635 L40356 L40435 L40466 L3762 L2118 L3852 L3866 L3864 L3860 L2205 L3853 L40235 L40367 L3803 L3797 L40577 L2144 L2146 L3801 L3829 L1264 L1271 L40587 L40161 L40290 L582 L40606 L40238 L40370 L3919 L22259 L23782"/>
    <route id="route89" edges="L900190309 L3635 L40356 L40435 L40466 L3762 L2118 L3852 L3866 L3864 L3860 L2205 L3853 L3846 L2186 L3824 L2163 L3808 L3721 L40498 L3711 L2042 L3666 L594 L569 L568 L579 L578 L10100 L97 L4 L70 L54 L596 L560 L40719 L40488 L40487 L40486 L40485 L40484 L40491 L821 L612"/>
    <route id="route90" edges="L900190309 L3635 L40356 L40435 L40466 L3762 L2118 L3852 L3866 L3864 L3860 L2205 L3853 L3846 L2186 L3824 L2163 L3808 L3721 L40498 L3711 L2042 L3666 L594 L569 L568 L579 L578 L10100 L97 L4 L70 L54 L596 L600 L652 L723 L743"/>
    <route id="route91" edges="L900190311 L4271 L40540 L40541 L40535 L40536 L40537 L40538 L40539 L40523 L40279 L40412 L10009 L232 L249 L239 L10150 L182 L181 L243 L240 L96 L98 L637 L625 L647 L3658 L4386 L3709 L40497 L3722 L3726 L40723 L40580 L2197 L3847 L3854 L4395 L2225 L40553 L2201 L3764 L40253 L40385 L40445 L40471 L100004381 L900190308"/>
    <route id="route92" edges="L900190311 L4271 L40540 L40541 L40535 L40536 L40537 L40538 L40539 L40523 L40279 L40412 L10009 L232 L249 L239 L10150 L182 L181 L243 L240 L45 L10175 L247 L174 L161 L241 L162 L214 L10223 L10113 L210 L270 L6 L30795 L40731 L755 L838 L40143 L40144 L2350 L4034 L2397 L40595 L2431 L4100 L900190278"/>
    <route id="route93" edges="L900190311 L4271 L40540 L40541 L40535 L40536 L40537 L40538 L40539 L40523 L40279 L40412 L10009 L232 L249 L239 L10150 L182 L181 L243 L240 L45 L10175 L247 L174 L161 L241 L162 L214 L10223 L10029 L278 L2127 L3783 L2149 L2152 L2153 L12162 L13816 L12165"/>
    <route id="route94" edges="L900190311 L4271 L40540 L40541 L40535 L40536 L40537 L40538 L40539 L40523 L40279 L40412 L10009 L232 L249 L239 L10150 L182 L181 L243 L240 L45 L10175 L247 L174 L161 L241 L162 L214 L10223 L10029 L278 L2127 L3783 L2149 L2152 L2153 L12162 L13816 L12165 L3820 L3848 L2204 L3858 L23782"/>
    <route id="route95" edges="L900190311 L4271 L40540 L40541 L40535 L40536 L40537 L40538 L40539 L40523 L40279 L40412 L10009 L232 L129 L10012 L10219 L133 L133.25 L135 L140#1 L140#2 L185 L139 L144 L143 L145 L221 L155 L10017 L52 L844 L821 L612"/>
    <route id="route96" edges="L900190311 L4271 L40540 L40541 L40535 L40536 L40537 L40538 L40539 L40523 L40279 L40412 L10009 L232 L249 L239 L10150 L182 L181 L243 L240 L4 L70 L54 L596 L600 L652 L723 L743"/>
    <route id="route97" edges="L1688 L3156 L3160 L1732 L3236 L593 L813 L558 L575 L565 L570 L40 L30 L10059 L40274 L40407 L40524 L1163 L40173 L40304 L40415 L40453 L40172 L40303 L2584 L900190313"/>
    <route id="route98" edges="L1688 L3156 L3160 L1732 L3236 L593 L813 L558 L575 L565 L570 L40 L10150 L182 L181 L243 L240 L45 L10175 L247 L174 L161 L241 L162 L214 L10223 L10113 L210 L270 L6 L30795 L40731 L755 L838 L40143 L40144 L2350 L4034 L2397 L40595 L2431 L4100 L900190278"/>
    <route id="route99" edges="L1688 L3156 L3160 L1732 L3236 L593 L813 L558 L575 L565 L570 L40 L10150 L182 L181 L243 L240 L45 L10175 L247 L174 L161 L241 L162 L214 L10223 L10029 L278 L2127 L3783 L2149 L2152 L2153 L12162 L13816 L12165"/>
    <route id="route100" edges="L1688 L3156 L3160 L1732 L3236 L593 L813 L558 L575 L565 L570 L40 L10150 L182 L181 L243 L240 L45 L10175 L247 L174 L161 L241 L162 L214 L10223 L10029 L278 L2127 L3783 L2149 L2152 L2153 L12162 L13816 L12165 L3820 L3848 L2204 L3858 L23782"/>
    <route id="route101" edges="L1688 L3156 L3160 L1732 L3236 L593 L813 L558 L575 L565 L570 L40 L10150 L182 L181 L243 L240 L4 L70 L54 L596 L560 L40719 L40488 L40487 L40486 L40485 L40484 L40491 L821 L612"/>
    <route id="route102" edges="L1688 L3156 L3160 L1732 L3236 L593 L813 L558 L575 L565 L570 L40 L10150 L182 L181 L243 L240 L4 L70 L54 L596 L600 L652 L723 L743"/>
    <route id="route103" edges="L900190376 L22165 L23816 L22162 L2158 L2156 L3806 L2132 L279 L126 L61 L225 L10114 L10256 L160 L245 L173 L10217 L25 L237 L250 L37 L193#1 L193#2 L197#1 L197#2 L30 L10059 L40274 L40407 L40524 L1163 L40173 L40304 L40415 L40453 L40172 L40303 L2584 L900190313"/>
    <route id="route104" edges="L900190376 L22165 L23816 L22162 L2158 L2156 L3806 L2132 L279 L126 L61 L225 L10114 L10256 L160 L245 L173 L10217 L25 L237 L250 L37 L193#1 L193#2 L197#1 L197#2 L30 L58#1 L58#2 L68 L30523 L522 L30521 L30544 L843 L40490 L40110 L900190293"/>
    <route id="route105" edges="L900190376 L22165 L23816 L22162 L2158 L2156 L3806 L2132 L279 L126 L61 L225 L10114 L10256 L160 L245 L173 L10217 L25 L237 L250 L37 L193#1 L193#2 L197#1 L197#2 L72 L39 L636 L623 L632 L822 L657 L4337 L1785 L3292 L3283 L1746 L3227 L3216 L3164 L1689 L14859"/>
    <route id="route106" edges="L900190376 L22165 L23816 L22162 L2158 L2156 L3806 L2132 L279 L126 L61 L225 L10114 L10256 L160 L245 L173 L10217 L96 L98 L637 L625 L647 L3658 L4386 L3709 L40497 L3722 L3726 L40723 L40580 L2197 L3847 L3854 L4395 L2225 L40553 L2201 L3764 L40253 L40385 L40445 L40471 L100004381 L900190308"/>
    <route id="route107" edges="L900190376 L22165 L23816 L22162 L2158 L2156 L3806 L2132 L279 L126 L227 L210 L270 L6 L30795 L40731 L755 L838 L40143 L40144 L2350 L4034 L2397 L40595 L2431 L4100 L900190278"/>
    <route id="route108" edges="L900190376 L3820 L3848 L3834 L3766 L40802 L2047 L3670 L3599 L3598 L24668"/>
    <route id="route109" edges="L900190376 L3820 L3848 L3834 L3766 L40802 L2047 L3670 L3599 L3598 L3585 L665 L825 L745 L680 L900290396"/>
    <route id="route110" edges="L22124 L23759 L4389#1 L4389#2 L3714 L2061 L24388 L23681 L3682 L40721 L3677 L2014 L2013 L40730 L136 L176 L154 L153 L151 L148 L10195 L141 L142 L137 L49 L10130 L10189 L30 L10059 L40274 L40407 L40524 L1163 L40173 L40304 L40415 L40453 L40172 L40303 L2584 L900190313"/>
    <route id="route111" edges="L22124 L23759 L4389#1 L4389#2 L3714 L2061 L24388 L23681 L3682 L40721 L3677 L2014 L2013 L40730 L136 L176 L154 L153 L151 L148 L10195 L141 L142 L137 L49 L134 L132 L20149 L30927 L30940 L68 L30523 L522 L30521 L30544 L843 L40490 L40110 L900190293"/>
    <route id="route112" edges="L22124 L23759 L4389#1 L4389#2 L3714 L2061 L24388 L23681 L3682 L40721 L3677 L2014 L2013 L40730 L136 L176 L154 L153 L151 L148 L10195 L141 L142 L137 L49 L10130 L10189 L72 L39 L636 L623 L632 L822 L657 L4337 L1785 L3292 L3283 L1746 L3227 L3216 L3164 L1689 L14859"/>
    <route id="route113" edges="L900190379 L13782 L12259 L23914 L3918 L1262 L586 L40165 L40295 L1269 L40193 L40586 L1282 L2170 L3818 L40574 L3804 L3814 L3839 L3854 L4395 L2225 L40553 L2201 L3764 L40253 L40385 L40445 L40471 L100004381 L900190308"/>
    <route id="route114" edges="L900190379 L13782 L12259 L23914 L3918 L1262 L586 L587 L40143 L40144 L2350 L4034 L2397 L40595 L2431 L4100 L900190278"/>
    <route id="route115" edges="L22124 L3778 L3776 L2114 L40802 L2047 L3670 L3599 L3598 L24668"/>
    <route id="route116" edges="L22124 L23759 L4389#1 L4389#2 L3714 L2061 L24388 L23681 L3682 L40721 L3677 L2014 L2013 L40730 L136 L176 L52 L745 L680 L900290396"/>
    <route id="route117" edges="L22124 L23759 L4389#1 L4389#2 L3714 L2061 L24388 L23681 L3682 L40721 L3677 L2014 L2013 L40730 L136 L176 L52 L844 L40167 L40298 L40716 L803 L842 L810 L786 L785 L3409 L3396 L3367 L3356 L3350 L3312 L1793 L3306 L3304 L3266 L3253 L23255 L3256"/>
    <route id="route118" edges="L3260 L3240 L816 L778 L40720 L601 L602 L40273 L40404 L64 L134 L132 L20149 L30927 L30940 L68 L30523 L522 L30521 L30544 L843 L40490 L40110 L900190293"/>
    <route id="route119" edges="L3260 L3240 L816 L778 L40720 L601 L602 L40273 L40404 L64 L10130 L10189 L30 L10059 L40274 L40407 L40524 L1163 L40173 L40304 L40415 L40453 L40172 L40303 L2584 L900190313"/>
    <route id="route120" edges="L3260 L3240 L816 L778 L40720 L601 L602 L40273 L40404 L64 L10130 L10189 L72 L39 L636 L623 L632 L822 L657 L4337 L1785 L3292 L3283 L1746 L3227 L3216 L3164 L1689 L14859"/>
    <route id="route121" edges="L14668 L3585 L665 L10199 L154 L153 L151 L148 L10195 L141 L142 L137 L49 L10130 L10189 L30 L10059 L40274 L40407 L40524 L1163 L40173 L40304 L40415 L40453 L40172 L40303 L2584 L900190313"/>
    <route id="route122" edges="L14668 L3585 L665 L10199 L154 L153 L151 L148 L10195 L141 L142 L137 L49 L134 L132 L20149 L30927 L30940 L68 L30523 L522 L30521 L30544 L843 L40490 L40110 L900190293"/>
    <route id="route123" edges="L14668 L3585 L665 L10199 L154 L153 L151 L148 L10195 L141 L142 L137 L49 L10130 L10189 L72 L39 L636 L623 L632 L822 L657 L4337 L1785 L3292 L3283 L1746 L3227 L3216 L3164 L1689 L14859"/>
    <route id="route124" edges="L14668 L3585 L665 L825 L745 L680 L729 L696 L692 L650 L652 L53 L83 L158 L230 L220 L96 L98 L637 L625 L647 L3658 L4386 L3709 L40497 L3722 L3726 L40723 L40580 L2197 L3847 L3854 L4395 L2225 L40553 L2201 L3764 L40253 L40385 L40445 L40471 L100004381 L900190308"/>
    <route id="route125" edges="L14668 L3585 L665 L10199 L118 L119 L10022 L170 L51 L10057 L20057 L6 L30795 L40731 L755 L838 L40143 L40144 L2350 L4034 L2397 L40595 L2431 L4100 L900190278"/>
    <route id="route126" edges="L14668 L3585 L665 L10199 L10168 L3608 L2010 L3633 L3675 L3676 L13681 L14388 L13695 L2063 L3699 L2069 L3716 L3755 L13759 L12124"/>
    <route id="route127" edges="L900190397 L692 L703 L40719 L40488 L40718 L650 L652 L53 L10195 L141 L142 L137 L49 L10130 L10189 L30 L10059 L40274 L40407 L40524 L1163 L40173 L40304 L40415 L40453 L40172 L40303 L2584 L900190313"/>
    <route id="route128" edges="L900190397 L692 L703 L40719 L40488 L40718 L650 L652 L53 L10195 L141 L142 L137 L49 L134 L132 L20149 L30927 L30940 L68 L30523 L522 L30521 L30544 L843 L40490 L40110 L900190293"/>
    <route id="route129" edges="L900190397 L692 L703 L40719 L40488 L40718 L650 L652 L53 L10195 L141 L142 L137 L49 L10130 L10189 L72 L39 L636 L623 L632 L822 L657 L4337 L1785 L3292 L3283 L1746 L3227 L3216 L3164 L1689 L14859"/>
    <route id="route130" edges="L900190397 L692 L703 L40719 L40488 L40718 L650 L652 L53 L83 L158 L230 L220 L96 L98 L637 L625 L647 L3658 L4386 L3709 L40497 L3722 L3726 L40723 L40580 L2197 L3847 L3854 L4395 L2225 L40553 L2201 L3764 L40253 L40385 L40445 L40471 L100004381 L900190308"/>
    <route id="route131" edges="L900190398 L40281 L40486 L40485 L40484 L40491 L821 L834 L10199 L118 L119 L10022 L170 L51 L10057 L20057 L6 L30795 L40731 L755 L838 L40143 L40144 L2350 L4034 L2397 L40595 L2431 L4100 L900190278"/>
    <route id="route132" edges="L900190397 L692 L703 L40719 L40488 L40718 L650 L652 L53 L145 L221 L155 L10017 L10168 L3608 L2010 L40803 L3640 L3730 L2153 L12162 L13816 L12165"/>
    <route id="route133" edges="L900190397 L692 L703 L40719 L40488 L40718 L650 L652 L53 L145 L221 L155 L10017 L10168 L3608 L2010 L3633 L3675 L3676 L13681 L14388 L13695 L2063 L3699 L2069 L3716 L3755 L13759 L12124"/>
    <route id="route134" edges="L226 L184 L229 L10114 L10256 L160 L245 L173 L10217 L25 L237 L250 L37 L193#1 L193#2 L197#1 L197#2 L30 L10059 L40274 L40407 L40524 L1163 L40173 L40304 L40415 L40453 L40172 L40303 L2584 L900190313"/>
    <route id="route135" edges="L226 L184 L229 L10114 L10256 L160 L245 L173 L10217 L25 L237 L250 L37 L193#1 L193#2 L197#1 L197#2 L30 L58#1 L58#2 L68 L30523 L522 L30521 L30544 L843 L40490 L40110 L900190293"/>
    <route id="route136" edges="L226 L184 L229 L10114 L10256 L160 L245 L173 L10217 L25 L237 L250 L37 L193#1 L193#2 L197#1 L197#2 L72 L39 L636 L623 L632 L822 L657 L4337 L1785 L3292 L3283 L1746 L3227 L3216 L3164 L1689 L14859"/>
    <route id="route137" edges="L226 L184 L30767 L10029 L278 L2127 L3783 L2149 L2152 L2153 L12162 L13816 L12165"/>
    <route id="route138" edges="L226 L184 L30767 L10029 L278 L2127 L3783 L2149 L2152 L2153 L12162 L13816 L12165 L3820 L3848 L2204 L3858 L23782"/>
    <route id="route139" edges="L226 L10046 L20046 L10010 L120 L10014 L10018 L7 L52 L844 L821 L612"/>
    <route id="route140" edges="L226 L10046 L20046 L10010 L120 L10014 L10018 L7 L52 L745 L680 L900290396"/>
    <route id="route141" edges="L569 L568 L579 L578 L10100 L97 L25 L237 L103 L900190221"/>
    <route id="route142" edges="L841 L647 L3658 L4386 L3709 L40497 L3722 L3726 L2160 L3826 L3803 L3797 L40577 L2144 L3800 L40234 L40366 L3948 L900190334 L200004004 L2352 L40590 L40593 L4057 L4068 L900190328"/>
    <route id="route143" edges="L569 L568 L579 L578 L10100 L97 L45 L10175 L247 L174 L161 L241 L162 L214 L10223 L10029 L278 L2127 L3783 L2149 L2152 L2153 L12162 L13816 L12165"/>
    <route id="route144" edges="L569 L568 L579 L578 L10100 L97 L45 L10175 L247 L174 L161 L241 L162 L214 L10223 L10029 L278 L2127 L3783 L2149 L2152 L2153 L12162 L13816 L12165 L3820 L3848 L2204 L3858 L23782 "/>
    <route id="route145" edges="L569 L568 L579 L578 L10100 L97 L4 L70 L54 L596 L560 L40719 L40488 L40487 L40486 L40485 L40484 L40491 L821 L612"/>
    <route id="route146" edges="L569 L568 L579 L578 L10100 L97 L4 L70 L54 L596 L600 L652 L723 L743"/>
    <route id="route147" edges="L40539 L40523 L40279 L40412 L10009 L232 L249 L239 L10150 L182 L181 L243 L240 L96 L98 L637 L625 L647 L3658 L4386 L3709 L40497 L3722 L3726 L40723 L40580 L2197 L3847 L3854 L4395 L2225 L40553 L2201 L3764 L40253 L40385 L40445 L40471 L100004381 L900190308"/>
    <route id="route148" edges="L40539 L40523 L40279 L40412 L10009 L232 L249 L239 L10150 L182 L181 L243 L240 L45 L10175 L247 L174 L161 L241 L162 L214 L10223 L10113 L210 L270 L6 L30795 L40731 L755 L838 L40143 L40144 L2350 L4034 L2397 L40595 L2431 L4100 L900190278"/>
    <route id="route149" edges="L40539 L40523 L40279 L40412 L10009 L232 L249 L239 L10150 L182 L181 L243 L240 L45 L10175 L247 L174 L161 L241 L162 L214 L10223 L10029 L278 L2127 L3783 L2149 L2152 L2153 L12162 L13816 L12165"/>
    <route id="route150" edges="L40539 L40523 L40279 L40412 L10009 L232 L249 L239 L10150 L182 L181 L243 L240 L45 L10175 L247 L174 L161 L241 L162 L214 L10223 L10029 L278 L2127 L3783 L2149 L2152 L2153 L12162 L13816 L12165 L3820 L3848 L2204 L3858 L23782"/>
    <route id="route151" edges="L40539 L40523 L40279 L40412 L10009 L232 L129 L10012 L10219 L133 L133.25 	L135 L140#1 L140#2 L185 L139 L144 L143 L145 L221 L155 L10017 L52 L844 L821 L612"/>
    <route id="route152" edges="L40539 L40523 L40279 L40412 L10009 L232 L249 L239 L10150 L182 L181 L243 L240 L4 L70 L54 L596 L600 L652 L723 L743"/>
    <route id="route153" edges="L900190309 L3635 L40356 L40435 L40466 L3762 L2118 L3852 L3866 L3864 L3860 L2205 L3853 L3846 L2186 L3824 L2163 L3808 L3721 L40498 L3711 L2042 L3666 L24986 L21921 L23478 L23465 L23453 L551 L552 L725 L699 L695 L569 L568 L579 L578 L10100 L97 L25 L237 L103 L900190221"/>
    <route id="route154" edges="L900190311 L4271 L40540 L40541 L40535 L40536 L40537 L40538 L40539 L40523 L40279 L40412 L10009 L232 L249 L239 L10150 L182 L181 L243 L240 L4 L70 L54 L596 L560 L40719 L40488 L40487 L40288 L900290398"/>