<additional xmlns:xsi="http://www.w3.org/2001/XMLSchema-instance">
	<edgeData begin="21600" excludeEmpty="true" file="oEdge_v12.5_mg2.37_sig0.7_a1.4_d3.3.xml" freq="900" id="test" />
	
	<inductionLoop file="out00.xml" freq="100" id="00" lane="L40_0" pos="500" />
	<inductionLoop file="out01.xml" freq="100" id="01" lane="L40_1" pos="500" />
	<inductionLoop file="out02.xml" freq="100" id="02" lane="L40_2" pos="500" />
	<inductionLoop file="out03.xml" freq="100" id="03" lane="L40_3" pos="500" />	
	<inductionLoop file="out10.xml" freq="100" id="10" lane="L197#2_0" pos="60" />
	<inductionLoop file="out11.xml" freq="100" id="11" lane="L197#2_1" pos="60" />
	<inductionLoop file="out12.xml" freq="100" id="12" lane="L197#2_2" pos="60" />
	<inductionLoop file="out13.xml" freq="100" id="13" lane="L197#2_3" pos="60" />
	<inductionLoop file="out14.xml" freq="100" id="14" lane="L197#2_4" pos="60" />
	<inductionLoop file="out20.xml" freq="100" id="20" lane="L10189_0" pos="165" />
	<inductionLoop file="out21.xml" freq="100" id="21" lane="L10189_1" pos="165" />
	<inductionLoop file="out22.xml" freq="100" id="22" lane="L10189_2" pos="165" />
	<inductionLoop file="out23.xml" freq="100" id="23" lane="L10189_3" pos="165" />	
	<inductionLoop file="out30.xml" freq="100" id="30" lane="L239_0" pos="30" />
	<inductionLoop file="out31.xml" freq="100" id="31" lane="L239_1" pos="30" />
	<inductionLoop file="out32.xml" freq="100" id="32" lane="L239_2" pos="30" />
	<inductionLoop file="out33.xml" freq="100" id="33" lane="L239_3" pos="30" />
    <tlLogics version="0.13" xsi:noNamespaceSchemaLocation="http://sumo-sim.org/xsd/tllogic_file.xsd">

        <tlLogic id="cluster_46_47" offset="21600" programID="1" type="static">
            <phase duration="24" state="GGGGrrrrgrrrrrrrrrrrrrrrrgggGGGGGGGGGGGGGrrrrrrrrrrrrrrrr" />
            <phase duration="111" state="GGGGrrrrgGGGGGGGGGGGGGGGGgggrrrrrrrrrrrrrGGGGGGGGGGGGGGGG" />
            <phase duration="41" state="GGGGGGGGgrrrrrrrrrrrrrrrrgggrrrrrrrGGGGGGrrrrrrrrrrrrrrrr" />
            <phase duration="76" state="GGGGrrrrgGGGGGGGGGGGGGGGGgggrrrrrrrrrrrrrGGGGGGGGGGGGGGGG" />
            <phase duration="36" state="GGGGrrrrgrrrrrrrrrrrrrrrrgggGGGGGGGGGGGGGrrrrrrrrrrrrrrrr" />
            <phase duration="129" state="GGGGrrrrgGGGGGGGGGGGGGGGGgggrrrrrrrrrrrrrGGGGGGGGGGGGGGGG" />
            <phase duration="41" state="GGGGGGGGgrrrrrrrrrrrrrrrrgggrrrrrrrGGGGGGrrrrrrrrrrrrrrrr" />
            <phase duration="77" state="GGGGrrrrgGGGGGGGGGGGGGGGGgggrrrrrrrrrrrrrGGGGGGGGGGGGGGGG" />
            <phase duration="26" state="GGGGrrrrgrrrrrrrrrrrrrrrrgggGGGGGGGGGGGGGrrrrrrrrrrrrrrrr" />
            <phase duration="25" state="GGGGGGGGgrrrrrrrrrrrrrrrrgggrrrrrrrGGGGGGrrrrrrrrrrrrrrrr" />
            <phase duration="132" state="GGGGrrrrgGGGGGGGGGGGGGGGGgggrrrrrrrrrrrrrGGGGGGGGGGGGGGGG" />
            <phase duration="37" state="GGGGrrrrgrrrrrrrrrrrrrrrrgggGGGGGGGGGGGGGrrrrrrrrrrrrrrrr" />
            <phase duration="79" state="GGGGrrrrgGGGGGGGGGGGGGGGGgggrrrrrrrrrrrrrGGGGGGGGGGGGGGGG" />
            <phase duration="44" state="GGGGGGGGgrrrrrrrrrrrrrrrrgggrrrrrrrGGGGGGrrrrrrrrrrrrrrrr" />
            <phase duration="107" state="GGGGrrrrgGGGGGGGGGGGGGGGGgggrrrrrrrrrrrrrGGGGGGGGGGGGGGGG" />
            <phase duration="22" state="GGGGrrrrgrrrrrrrrrrrrrrrrgggGGGGGGGGGGGGGrrrrrrrrrrrrrrrr" />
            <phase duration="23" state="GGGGGGGGgrrrrrrrrrrrrrrrrgggrrrrrrrGGGGGGrrrrrrrrrrrrrrrr" />
            <phase duration="166" state="GGGGrrrrgGGGGGGGGGGGGGGGGgggrrrrrrrrrrrrrGGGGGGGGGGGGGGGG" />
            <phase duration="40" state="GGGGGGGGgrrrrrrrrrrrrrrrrgggrrrrrrrGGGGGGrrrrrrrrrrrrrrrr" />
            <phase duration="103" state="GGGGrrrrgGGGGGGGGGGGGGGGGgggrrrrrrrrrrrrrGGGGGGGGGGGGGGGG" />
            <phase duration="32" state="GGGGrrrrgrrrrrrrrrrrrrrrrgggGGGGGGGGGGGGGrrrrrrrrrrrrrrrr" />
            <phase duration="23" state="GGGGGGGGgrrrrrrrrrrrrrrrrgggrrrrrrrGGGGGGrrrrrrrrrrrrrrrr" />
            <phase duration="124" state="GGGGrrrrgGGGGGGGGGGGGGGGGgggrrrrrrrrrrrrrGGGGGGGGGGGGGGGG" />
            <phase duration="76" state="GGGGGGGGgrrrrrrrrrrrrrrrrgggrrrrrrrGGGGGGrrrrrrrrrrrrrrrr" />
            <phase duration="111" state="GGGGrrrrgGGGGGGGGGGGGGGGGgggrrrrrrrrrrrrrGGGGGGGGGGGGGGGG" />
            <phase duration="25" state="GGGGrrrrgrrrrrrrrrrrrrrrrgggGGGGGGGGGGGGGrrrrrrrrrrrrrrrr" />
            <phase duration="33" state="GGGGGGGGgrrrrrrrrrrrrrrrrgggrrrrrrrGGGGGGrrrrrrrrrrrrrrrr" />
            <phase duration="95" state="GGGGrrrrgGGGGGGGGGGGGGGGGgggrrrrrrrrrrrrrGGGGGGGGGGGGGGGG" />
            <phase duration="33" state="GGGGrrrrgrrrrrrrrrrrrrrrrgggGGGGGGGGGGGGGrrrrrrrrrrrrrrrr" />
            <phase duration="35" state="GGGGGGGGgrrrrrrrrrrrrrrrrgggrrrrrrrGGGGGGrrrrrrrrrrrrrrrr" />
            <phase duration="87" state="GGGGrrrrgGGGGGGGGGGGGGGGGgggrrrrrrrrrrrrrGGGGGGGGGGGGGGGG" />
            <phase duration="37" state="GGGGrrrrgrrrrrrrrrrrrrrrrgggGGGGGGGGGGGGGrrrrrrrrrrrrrrrr" />
            <phase duration="32" state="GGGGGGGGgrrrrrrrrrrrrrrrrgggrrrrrrrGGGGGGrrrrrrrrrrrrrrrr" />
            <phase duration="73" state="GGGGrrrrgGGGGGGGGGGGGGGGGgggrrrrrrrrrrrrrGGGGGGGGGGGGGGGG" />
            <phase duration="53" state="GGGGrrrrgrrrrrrrrrrrrrrrrgggGGGGGGGGGGGGGrrrrrrrrrrrrrrrr" />
            <phase duration="52" state="GGGGrrrrgGGGGGGGGGGGGGGGGgggrrrrrrrrrrrrrGGGGGGGGGGGGGGGG" />
            <phase duration="30" state="GGGGrrrrgrrrrrrrrrrrrrrrrgggGGGGGGGGGGGGGrrrrrrrrrrrrrrrr" />
            <phase duration="29" state="GGGGGGGGgrrrrrrrrrrrrrrrrgggrrrrrrrGGGGGGrrrrrrrrrrrrrrrr" />
            <phase duration="139" state="GGGGrrrrgGGGGGGGGGGGGGGGGgggrrrrrrrrrrrrrGGGGGGGGGGGGGGGG" />
            <phase duration="54" state="GGGGGGGGgrrrrrrrrrrrrrrrrgggrrrrrrrGGGGGGrrrrrrrrrrrrrrrr" />
            <phase duration="106" state="GGGGrrrrgGGGGGGGGGGGGGGGGgggrrrrrrrrrrrrrGGGGGGGGGGGGGGGG" />
            <phase duration="27" state="GGGGrrrrgrrrrrrrrrrrrrrrrgggGGGGGGGGGGGGGrrrrrrrrrrrrrrrr" />
            <phase duration="26" state="GGGGGGGGgrrrrrrrrrrrrrrrrgggrrrrrrrGGGGGGrrrrrrrrrrrrrrrr" />
            <phase duration="94" state="GGGGrrrrgGGGGGGGGGGGGGGGGgggrrrrrrrrrrrrrGGGGGGGGGGGGGGGG" />
            <phase duration="35" state="GGGGrrrrgrrrrrrrrrrrrrrrrgggGGGGGGGGGGGGGrrrrrrrrrrrrrrrr" />
            <phase duration="34" state="GGGGGGGGgrrrrrrrrrrrrrrrrgggrrrrrrrGGGGGGrrrrrrrrrrrrrrrr" />
            <phase duration="110" state="GGGGrrrrgGGGGGGGGGGGGGGGGgggrrrrrrrrrrrrrGGGGGGGGGGGGGGGG" />
            <phase duration="37" state="GGGGrrrrgrrrrrrrrrrrrrrrrgggGGGGGGGGGGGGGrrrrrrrrrrrrrrrr" />
            <phase duration="79" state="GGGGrrrrgGGGGGGGGGGGGGGGGgggrrrrrrrrrrrrrGGGGGGGGGGGGGGGG" />
            <phase duration="26" state="GGGGrrrrgrrrrrrrrrrrrrrrrgggGGGGGGGGGGGGGrrrrrrrrrrrrrrrr" />
            <phase duration="42" state="GGGGGGGGgrrrrrrrrrrrrrrrrgggrrrrrrrGGGGGGrrrrrrrrrrrrrrrr" />
            <phase duration="128" state="GGGGrrrrgGGGGGGGGGGGGGGGGgggrrrrrrrrrrrrrGGGGGGGGGGGGGGGG" />
            <phase duration="39" state="GGGGrrrrgrrrrrrrrrrrrrrrrgggGGGGGGGGGGGGGrrrrrrrrrrrrrrrr" />
            <phase duration="155" state="GGGGrrrrgGGGGGGGGGGGGGGGGgggrrrrrrrrrrrrrGGGGGGGGGGGGGGGG" />
            <phase duration="25" state="GGGGrrrrgrrrrrrrrrrrrrrrrgggGGGGGGGGGGGGGrrrrrrrrrrrrrrrr" />
            <phase duration="32" state="GGGGGGGGgrrrrrrrrrrrrrrrrgggrrrrrrrGGGGGGrrrrrrrrrrrrrrrr" />
            <phase duration="102" state="GGGGrrrrgGGGGGGGGGGGGGGGGgggrrrrrrrrrrrrrGGGGGGGGGGGGGGGG" />
            <phase duration="45" state="GGGGrrrrgrrrrrrrrrrrrrrrrgggGGGGGGGGGGGGGrrrrrrrrrrrrrrrr" />
            <phase duration="30" state="GGGGGGGGgrrrrrrrrrrrrrrrrgggrrrrrrrGGGGGGrrrrrrrrrrrrrrrr" />
            <phase duration="122" state="GGGGrrrrgGGGGGGGGGGGGGGGGgggrrrrrrrrrrrrrGGGGGGGGGGGGGGGG" />
            <phase duration="34" state="GGGGrrrrgrrrrrrrrrrrrrrrrgggGGGGGGGGGGGGGrrrrrrrrrrrrrrrr" />
            <phase duration="68" state="GGGGrrrrgGGGGGGGGGGGGGGGGgggrrrrrrrrrrrrrGGGGGGGGGGGGGGGG" />
            <phase duration="29" state="GGGGrrrrgrrrrrrrrrrrrrrrrgggGGGGGGGGGGGGGrrrrrrrrrrrrrrrr" />
            <phase duration="41" state="GGGGGGGGgrrrrrrrrrrrrrrrrgggrrrrrrrGGGGGGrrrrrrrrrrrrrrrr" />
            <phase duration="121" state="GGGGrrrrgGGGGGGGGGGGGGGGGgggrrrrrrrrrrrrrGGGGGGGGGGGGGGGG" />
            <phase duration="33" state="GGGGrrrrgrrrrrrrrrrrrrrrrgggGGGGGGGGGGGGGrrrrrrrrrrrrrrrr" />
            <phase duration="32" state="GGGGGGGGgrrrrrrrrrrrrrrrrgggrrrrrrrGGGGGGrrrrrrrrrrrrrrrr" />
            <phase duration="182" state="GGGGrrrrgGGGGGGGGGGGGGGGGgggrrrrrrrrrrrrrGGGGGGGGGGGGGGGG" />
            <phase duration="25" state="GGGGrrrrgrrrrrrrrrrrrrrrrgggGGGGGGGGGGGGGrrrrrrrrrrrrrrrr" />
            <phase duration="46" state="GGGGGGGGgrrrrrrrrrrrrrrrrgggrrrrrrrGGGGGGrrrrrrrrrrrrrrrr" />
            <phase duration="85" state="GGGGrrrrgGGGGGGGGGGGGGGGGgggrrrrrrrrrrrrrGGGGGGGGGGGGGGGG" />
            <phase duration="36" state="GGGGrrrrgrrrrrrrrrrrrrrrrgggGGGGGGGGGGGGGrrrrrrrrrrrrrrrr" />
            <phase duration="33" state="GGGGGGGGgrrrrrrrrrrrrrrrrgggrrrrrrrGGGGGGrrrrrrrrrrrrrrrr" />
            <phase duration="94" state="GGGGrrrrgGGGGGGGGGGGGGGGGgggrrrrrrrrrrrrrGGGGGGGGGGGGGGGG" />
            <phase duration="27" state="GGGGrrrrgrrrrrrrrrrrrrrrrgggGGGGGGGGGGGGGrrrrrrrrrrrrrrrr" />
            <phase duration="37" state="GGGGGGGGgrrrrrrrrrrrrrrrrgggrrrrrrrGGGGGGrrrrrrrrrrrrrrrr" />
            <phase duration="128" state="GGGGrrrrgGGGGGGGGGGGGGGGGgggrrrrrrrrrrrrrGGGGGGGGGGGGGGGG" />
            <phase duration="49" state="GGGGrrrrgrrrrrrrrrrrrrrrrgggGGGGGGGGGGGGGrrrrrrrrrrrrrrrr" />
            <phase duration="28" state="GGGGGGGGgrrrrrrrrrrrrrrrrgggrrrrrrrGGGGGGrrrrrrrrrrrrrrrr" />
            <phase duration="107" state="GGGGrrrrgGGGGGGGGGGGGGGGGgggrrrrrrrrrrrrrGGGGGGGGGGGGGGGG" />
            <phase duration="38" state="GGGGrrrrgrrrrrrrrrrrrrrrrgggGGGGGGGGGGGGGrrrrrrrrrrrrrrrr" />
            <phase duration="63" state="GGGGrrrrgGGGGGGGGGGGGGGGGgggrrrrrrrrrrrrrGGGGGGGGGGGGGGGG" />
            <phase duration="47" state="GGGGGGGGgrrrrrrrrrrrrrrrrgggrrrrrrrGGGGGGrrrrrrrrrrrrrrrr" />
            <phase duration="45" state="GGGGrrrrgGGGGGGGGGGGGGGGGgggrrrrrrrrrrrrrGGGGGGGGGGGGGGGG" />
            <phase duration="36" state="GGGGrrrrgrrrrrrrrrrrrrrrrgggGGGGGGGGGGGGGrrrrrrrrrrrrrrrr" />
            <phase duration="33" state="GGGGGGGGgrrrrrrrrrrrrrrrrgggrrrrrrrGGGGGGrrrrrrrrrrrrrrrr" />
            <phase duration="84" state="GGGGrrrrgGGGGGGGGGGGGGGGGgggrrrrrrrrrrrrrGGGGGGGGGGGGGGGG" />
            <phase duration="66" state="GGGGrrrrgrrrrrrrrrrrrrrrrgggGGGGGGGGGGGGGrrrrrrrrrrrrrrrr" />
            <phase duration="101" state="GGGGrrrrgGGGGGGGGGGGGGGGGgggrrrrrrrrrrrrrGGGGGGGGGGGGGGGG" />
            <phase duration="57" state="GGGGGGGGgrrrrrrrrrrrrrrrrgggrrrrrrrGGGGGGrrrrrrrrrrrrrrrr" />
            <phase duration="47" state="GGGGrrrrgGGGGGGGGGGGGGGGGgggrrrrrrrrrrrrrGGGGGGGGGGGGGGGG" />
            <phase duration="52" state="GGGGrrrrgrrrrrrrrrrrrrrrrgggGGGGGGGGGGGGGrrrrrrrrrrrrrrrr" />
            <phase duration="41" state="GGGGGGGGgrrrrrrrrrrrrrrrrgggrrrrrrrGGGGGGrrrrrrrrrrrrrrrr" />
            <phase duration="61" state="GGGGrrrrgGGGGGGGGGGGGGGGGgggrrrrrrrrrrrrrGGGGGGGGGGGGGGGG" />
            <phase duration="48" state="GGGGrrrrgrrrrrrrrrrrrrrrrgggGGGGGGGGGGGGGrrrrrrrrrrrrrrrr" />
            <phase duration="121" state="GGGGrrrrgGGGGGGGGGGGGGGGGgggrrrrrrrrrrrrrGGGGGGGGGGGGGGGG" />
            <phase duration="48" state="GGGGrrrrgrrrrrrrrrrrrrrrrgggGGGGGGGGGGGGGrrrrrrrrrrrrrrrr" />
            <phase duration="74" state="GGGGrrrrgGGGGGGGGGGGGGGGGgggrrrrrrrrrrrrrGGGGGGGGGGGGGGGG" />
            <phase duration="39" state="GGGGGGGGgrrrrrrrrrrrrrrrrgggrrrrrrrGGGGGGrrrrrrrrrrrrrrrr" />
            <phase duration="91" state="GGGGrrrrgrrrrrrrrrrrrrrrrgggGGGGGGGGGGGGGrrrrrrrrrrrrrrrr" />
            <phase duration="83" state="GGGGrrrrgGGGGGGGGGGGGGGGGgggrrrrrrrrrrrrrGGGGGGGGGGGGGGGG" />
            <phase duration="50" state="GGGGGGGGgrrrrrrrrrrrrrrrrgggrrrrrrrGGGGGGrrrrrrrrrrrrrrrr" />
            <phase duration="54" state="GGGGrrrrgGGGGGGGGGGGGGGGGgggrrrrrrrrrrrrrGGGGGGGGGGGGGGGG" />
            <phase duration="34" state="GGGGrrrrgrrrrrrrrrrrrrrrrgggGGGGGGGGGGGGGrrrrrrrrrrrrrrrr" />
            <phase duration="79" state="GGGGrrrrgrrrrrrrrrrrrrrrrgggrrrrrrrrrrrrrGGGGGGGGGGGGGGGG" />
            <phase duration="41" state="GGGGGGGGgrrrrrrrrrrrrrrrrgggrrrrrrrGGGGGGrrrrrrrrrrrrrrrr" />
            <phase duration="87" state="GGGGrrrrgGGGGGGGGGGGGGGGGgggrrrrrrrrrrrrrGGGGGGGGGGGGGGGG" />
            <phase duration="43" state="GGGGrrrrgrrrrrrrrrrrrrrrrgggGGGGGGGGGGGGGrrrrrrrrrrrrrrrr" />
            <phase duration="91" state="GGGGGGGGgrrrrrrrrrrrrrrrrgggrrrrrrrGGGGGGrrrrrrrrrrrrrrrr" />
            <phase duration="100" state="GGGGrrrrgGGGGGGGGGGGGGGGGgggrrrrrrrrrrrrrGGGGGGGGGGGGGGGG" />
            <phase duration="36" state="GGGGrrrrgrrrrrrrrrrrrrrrrgggGGGGGGGGGGGGGrrrrrrrrrrrrrrrr" />
            <phase duration="72" state="GGGGrrrrgGGGGGGGGGGGGGGGGgggrrrrrrrrrrrrrGGGGGGGGGGGGGGGG" />
            <phase duration="56" state="GGGGGGGGgrrrrrrrrrrrrrrrrgggrrrrrrrGGGGGGrrrrrrrrrrrrrrrr" />
            <phase duration="55" state="GGGGrrrrgGGGGGGGGGGGGGGGGgggrrrrrrrrrrrrrGGGGGGGGGGGGGGGG" />
            <phase duration="42" state="GGGGrrrrgrrrrrrrrrrrrrrrrgggGGGGGGGGGGGGGrrrrrrrrrrrrrrrr" />
            <phase duration="95" state="GGGGrrrrgGGGGGGGGGGGGGGGGgggrrrrrrrrrrrrrGGGGGGGGGGGGGGGG" />
            <phase duration="37" state="GGGGGGGGgrrrrrrrrrrrrrrrrgggrrrrrrrGGGGGGrrrrrrrrrrrrrrrr" />
            <phase duration="82" state="GGGGrrrrgGGGGGGGGGGGGGGGGgggrrrrrrrrrrrrrGGGGGGGGGGGGGGGG" />
            <phase duration="36" state="GGGGrrrrgrrrrrrrrrrrrrrrrgggGGGGGGGGGGGGGrrrrrrrrrrrrrrrr" />
            <phase duration="107" state="GGGGrrrrgGGGGGGGGGGGGGGGGgggrrrrrrrrrrrrrGGGGGGGGGGGGGGGG" />
            <phase duration="57" state="GGGGGGGGgrrrrrrrrrrrrrrrrgggrrrrrrrGGGGGGrrrrrrrrrrrrrrrr" />
            <phase duration="124" state="GGGGrrrrgGGGGGGGGGGGGGGGGgggrrrrrrrrrrrrrGGGGGGGGGGGGGGGG" />
            <phase duration="47" state="GGGGrrrrgrrrrrrrrrrrrrrrrgggGGGGGGGGGGGGGrrrrrrrrrrrrrrrr" />
            <phase duration="46" state="GGGGGGGGgrrrrrrrrrrrrrrrrgggrrrrrrrGGGGGGrrrrrrrrrrrrrrrr" />
            <phase duration="82" state="GGGGrrrrgGGGGGGGGGGGGGGGGgggrrrrrrrrrrrrrGGGGGGGGGGGGGGGG" />
            <phase duration="39" state="GGGGrrrrgrrrrrrrrrrrrrrrrgggGGGGGGGGGGGGGrrrrrrrrrrrrrrrr" />
            <phase duration="80" state="GGGGrrrrgrrrrrrrrrrrrrrrrgggrrrrrrrrrrrrrGGGGGGGGGGGGGGGG" />
            <phase duration="42" state="GGGGGGGGgrrrrrrrrrrrrrrrrgggrrrrrrrGGGGGGrrrrrrrrrrrrrrrr" />
            <phase duration="80" state="GGGGrrrrgGGGGGGGGGGGGGGGGgggrrrrrrrrrrrrrGGGGGGGGGGGGGGGG" />
            <phase duration="41" state="GGGGrrrrgrrrrrrrrrrrrrrrrgggGGGGGGGGGGGGGrrrrrrrrrrrrrrrr" />
            <phase duration="78" state="GGGGrrrrgrrrrrrrrrrrrrrrrgggrrrrrrrrrrrrrGGGGGGGGGGGGGGGG" />
            <phase duration="40" state="GGGGGGGGgrrrrrrrrrrrrrrrrgggrrrrrrrGGGGGGrrrrrrrrrrrrrrrr" />
            <phase duration="83" state="GGGGrrrrgGGGGGGGGGGGGGGGGgggrrrrrrrrrrrrrGGGGGGGGGGGGGGGG" />
            <phase duration="40" state="GGGGrrrrgrrrrrrrrrrrrrrrrgggGGGGGGGGGGGGGrrrrrrrrrrrrrrrr" />
            <phase duration="49" state="GGGGrrrrgrrrrrrrrrrrrrrrrgggrrrrrrrrrrrrrGGGGGGGGGGGGGGGG" />
            <phase duration="42" state="GGGGGGGGgrrrrrrrrrrrrrrrrgggrrrrrrrGGGGGGrrrrrrrrrrrrrrrr" />
            <phase duration="69" state="GGGGrrrrgGGGGGGGGGGGGGGGGgggrrrrrrrrrrrrrGGGGGGGGGGGGGGGG" />
            <phase duration="36" state="GGGGrrrrgrrrrrrrrrrrrrrrrgggGGGGGGGGGGGGGrrrrrrrrrrrrrrrr" />
            <phase duration="85" state="GGGGrrrrgrrrrrrrrrrrrrrrrgggrrrrrrrrrrrrrGGGGGGGGGGGGGGGG" />
            <phase duration="54" state="GGGGGGGGgrrrrrrrrrrrrrrrrgggrrrrrrrGGGGGGrrrrrrrrrrrrrrrr" />
            <phase duration="93" state="GGGGrrrrgGGGGGGGGGGGGGGGGgggrrrrrrrrrrrrrGGGGGGGGGGGGGGGG" />
            <phase duration="61" state="GGGGGGGGgrrrrrrrrrrrrrrrrgggrrrrrrrGGGGGGrrrrrrrrrrrrrrrr" />
            <phase duration="53" state="GGGGrrrrgGGGGGGGGGGGGGGGGgggrrrrrrrrrrrrrGGGGGGGGGGGGGGGG" />
            <phase duration="36" state="GGGGrrrrgrrrrrrrrrrrrrrrrgggGGGGGGGGGGGGGrrrrrrrrrrrrrrrr" />
            <phase duration="77" state="GGGGrrrrgGGGGGGGGGGGGGGGGgggrrrrrrrrrrrrrGGGGGGGGGGGGGGGG" />
            <phase duration="61" state="GGGGGGGGgrrrrrrrrrrrrrrrrgggrrrrrrrGGGGGGrrrrrrrrrrrrrrrr" />
            <phase duration="66" state="GGGGrrrrgGGGGGGGGGGGGGGGGgggrrrrrrrrrrrrrGGGGGGGGGGGGGGGG" />
            <phase duration="67" state="GGGGGGGGgrrrrrrrrrrrrrrrrgggrrrrrrrGGGGGGrrrrrrrrrrrrrrrr" />
            <phase duration="78" state="GGGGrrrrgGGGGGGGGGGGGGGGGgggrrrrrrrrrrrrrGGGGGGGGGGGGGGGG" />
            <phase duration="41" state="GGGGrrrrgrrrrrrrrrrrrrrrrgggGGGGGGGGGGGGGrrrrrrrrrrrrrrrr" />
            <phase duration="72" state="GGGGGGGGgrrrrrrrrrrrrrrrrgggrrrrrrrGGGGGGrrrrrrrrrrrrrrrr" />
            <phase duration="95" state="GGGGrrrrgGGGGGGGGGGGGGGGGgggrrrrrrrrrrrrrGGGGGGGGGGGGGGGG" />
            <phase duration="58" state="GGGGGGGGgrrrrrrrrrrrrrrrrgggrrrrrrrGGGGGGrrrrrrrrrrrrrrrr" />
            <phase duration="49" state="GGGGrrrrgGGGGGGGGGGGGGGGGgggrrrrrrrrrrrrrGGGGGGGGGGGGGGGG" />
            <phase duration="45" state="GGGGrrrrgrrrrrrrrrrrrrrrrgggGGGGGGGGGGGGGrrrrrrrrrrrrrrrr" />
            <phase duration="44" state="GGGGGGGGgrrrrrrrrrrrrrrrrgggrrrrrrrGGGGGGrrrrrrrrrrrrrrrr" />
            <phase duration="86" state="GGGGrrrrgGGGGGGGGGGGGGGGGgggrrrrrrrrrrrrrGGGGGGGGGGGGGGGG" />
            <phase duration="61" state="GGGGGGGGgrrrrrrrrrrrrrrrrgggrrrrrrrGGGGGGrrrrrrrrrrrrrrrr" />
            <phase duration="68" state="GGGGrrrrgGGGGGGGGGGGGGGGGgggrrrrrrrrrrrrrGGGGGGGGGGGGGGGG" />
            <phase duration="49" state="GGGGrrrrgrrrrrrrrrrrrrrrrgggGGGGGGGGGGGGGrrrrrrrrrrrrrrrr" />
            <phase duration="112" state="GGGGrrrrgGGGGGGGGGGGGGGGGgggrrrrrrrrrrrrrGGGGGGGGGGGGGGGG" />
            <phase duration="41" state="GGGGrrrrgrrrrrrrrrrrrrrrrgggGGGGGGGGGGGGGrrrrrrrrrrrrrrrr" />
            <phase duration="58" state="GGGGGGGGgrrrrrrrrrrrrrrrrgggrrrrrrrGGGGGGrrrrrrrrrrrrrrrr" />
            <phase duration="67" state="GGGGrrrrgGGGGGGGGGGGGGGGGgggrrrrrrrrrrrrrGGGGGGGGGGGGGGGG" />
            <phase duration="43" state="GGGGrrrrgrrrrrrrrrrrrrrrrgggGGGGGGGGGGGGGrrrrrrrrrrrrrrrr" />
            <phase duration="72" state="GGGGrrrrgGGGGGGGGGGGGGGGGgggrrrrrrrrrrrrrGGGGGGGGGGGGGGGG" />
            <phase duration="39" state="GGGGGGGGgrrrrrrrrrrrrrrrrgggrrrrrrrGGGGGGrrrrrrrrrrrrrrrr" />
            <phase duration="66" state="GGGGrrrrgGGGGGGGGGGGGGGGGgggrrrrrrrrrrrrrGGGGGGGGGGGGGGGG" />
            <phase duration="43" state="GGGGrrrrgrrrrrrrrrrrrrrrrgggGGGGGGGGGGGGGrrrrrrrrrrrrrrrr" />
            <phase duration="82" state="GGGGrrrrgGGGGGGGGGGGGGGGGgggrrrrrrrrrrrrrGGGGGGGGGGGGGGGG" />
            <phase duration="42" state="GGGGGGGGgrrrrrrrrrrrrrrrrgggrrrrrrrGGGGGGrrrrrrrrrrrrrrrr" />
            <phase duration="72" state="GGGGrrrrgGGGGGGGGGGGGGGGGgggrrrrrrrrrrrrrGGGGGGGGGGGGGGGG" />
            <phase duration="42" state="GGGGrrrrgrrrrrrrrrrrrrrrrgggGGGGGGGGGGGGGrrrrrrrrrrrrrrrr" />
            <phase duration="61" state="GGGGrrrrgGGGGGGGGGGGGGGGGgggrrrrrrrrrrrrrGGGGGGGGGGGGGGGG" />
            <phase duration="43" state="GGGGGGGGgrrrrrrrrrrrrrrrrgggrrrrrrrGGGGGGrrrrrrrrrrrrrrrr" />
            <phase duration="61" state="GGGGrrrrgGGGGGGGGGGGGGGGGgggrrrrrrrrrrrrrGGGGGGGGGGGGGGGG" />
            <phase duration="69" state="GGGGrrrrgrrrrrrrrrrrrrrrrgggGGGGGGGGGGGGGrrrrrrrrrrrrrrrr" />
            <phase duration="65" state="GGGGrrrrgGGGGGGGGGGGGGGGGgggrrrrrrrrrrrrrGGGGGGGGGGGGGGGG" />
            <phase duration="73" state="GGGGGGGGgrrrrrrrrrrrrrrrrgggrrrrrrrGGGGGGrrrrrrrrrrrrrrrr" />
            <phase duration="64" state="GGGGrrrrgGGGGGGGGGGGGGGGGgggrrrrrrrrrrrrrGGGGGGGGGGGGGGGG" />
            <phase duration="40" state="GGGGrrrrgrrrrrrrrrrrrrrrrgggGGGGGGGGGGGGGrrrrrrrrrrrrrrrr" />
            <phase duration="74" state="GGGGrrrrgrrrrrrrrrrrrrrrrgggrrrrrrrrrrrrrGGGGGGGGGGGGGGGG" />
            <phase duration="45" state="GGGGGGGGgrrrrrrrrrrrrrrrrgggrrrrrrrGGGGGGrrrrrrrrrrrrrrrr" />
            <phase duration="63" state="GGGGrrrrgGGGGGGGGGGGGGGGGgggrrrrrrrrrrrrrGGGGGGGGGGGGGGGG" />
            <phase duration="57" state="GGGGrrrrgrrrrrrrrrrrrrrrrgggGGGGGGGGGGGGGrrrrrrrrrrrrrrrr" />
            <phase duration="45" state="GGGGGGGGgrrrrrrrrrrrrrrrrgggrrrrrrrGGGGGGrrrrrrrrrrrrrrrr" />
            <phase duration="74" state="GGGGrrrrgGGGGGGGGGGGGGGGGgggrrrrrrrrrrrrrGGGGGGGGGGGGGGGG" />
            <phase duration="49" state="GGGGrrrrgrrrrrrrrrrrrrrrrgggGGGGGGGGGGGGGrrrrrrrrrrrrrrrr" />
            <phase duration="72" state="GGGGrrrrgGGGGGGGGGGGGGGGGgggrrrrrrrrrrrrrGGGGGGGGGGGGGGGG" />
            <phase duration="68" state="GGGGrrrrgrrrrrrrrrrrrrrrrgggGGGGGGGGGGGGGrrrrrrrrrrrrrrrr" />
            <phase duration="42" state="GGGGGGGGgrrrrrrrrrrrrrrrrgggrrrrrrrGGGGGGrrrrrrrrrrrrrrrr" />
            <phase duration="68" state="GGGGrrrrgGGGGGGGGGGGGGGGGgggrrrrrrrrrrrrrGGGGGGGGGGGGGGGG" />
            <phase duration="83" state="GGGGrrrrgrrrrrrrrrrrrrrrrgggGGGGGGGGGGGGGrrrrrrrrrrrrrrrr" />
            <phase duration="86" state="GGGGrrrrgGGGGGGGGGGGGGGGGgggrrrrrrrrrrrrrGGGGGGGGGGGGGGGG" />
            <phase duration="51" state="GGGGGGGGgrrrrrrrrrrrrrrrrgggrrrrrrrGGGGGGrrrrrrrrrrrrrrrr" />
            <phase duration="71" state="GGGGrrrrgGGGGGGGGGGGGGGGGgggrrrrrrrrrrrrrGGGGGGGGGGGGGGGG" />
            <phase duration="67" state="GGGGrrrrgrrrrrrrrrrrrrrrrgggGGGGGGGGGGGGGrrrrrrrrrrrrrrrr" />
            <phase duration="75" state="GGGGrrrrgGGGGGGGGGGGGGGGGgggrrrrrrrrrrrrrGGGGGGGGGGGGGGGG" />
            <phase duration="97" state="GGGGGGGGgrrrrrrrrrrrrrrrrgggrrrrrrrGGGGGGrrrrrrrrrrrrrrrr" />
            <phase duration="148" state="GGGGrrrrgGGGGGGGGGGGGGGGGgggrrrrrrrrrrrrrGGGGGGGGGGGGGGGG" />
        </tlLogic>

        <tlLogic id="cluster_20_21_22_23" offset="21600" programID="1" type="static">
            <phase duration="25" state="gggGGGGGGGGGGGGGgrrrrrrrrrrrrrrrrggrrrrrrrrrrrrrrgrrrrrrrrrrrrrrrrrrrr" />
            <phase duration="57" state="gggrrrrrrrrrrrrrgGGGGGGGGGGGGGGGGggrrrrrrrrrrrrrrgGGGGGGGGGGGGrrrrrrrr" />
            <phase duration="44" state="gggrrrrrrrrrrrrrgrrrrrrrrrrrrrrrrggrrrrrrrrrrrrrrgGGGGGGGGGGGGGGGGGGGG" />
            <phase duration="42" state="gggrrrrrrrrrrrrrgrrrrrrrrrrrrrrrrggGGGGGGGGGGGGGGgrrrrrrrrrrrrrrrrrrrr" />
            <phase duration="51" state="gggGGGGGGGGGGGGGgrrrrrrrrrrrrrrrrggrrrrrrrrrrrrrrgrrrrrrrrrrrrrrrrrrrr" />
            <phase duration="59" state="gggrrrrrrrrrrrrrgGGGGGGGGGGGGGGGGggrrrrrrrrrrrrrrgGGGGGGGGGGGGrrrrrrrr" />
            <phase duration="44" state="gggrrrrrrrrrrrrrgrrrrrrrrrrrrrrrrggrrrrrrrrrrrrrrgGGGGGGGGGGGGGGGGGGGG" />
            <phase duration="41" state="gggrrrrrrrrrrrrrgrrrrrrrrrrrrrrrrggGGGGGGGGGGGGGGgrrrrrrrrrrrrrrrrrrrr" />
            <phase duration="48" state="gggGGGGGGGGGGGGGgrrrrrrrrrrrrrrrrggrrrrrrrrrrrrrrgrrrrrrrrrrrrrrrrrrrr" />
            <phase duration="63" state="gggrrrrrrrrrrrrrgGGGGGGGGGGGGGGGGggrrrrrrrrrrrrrrgGGGGGGGGGGGGrrrrrrrr" />
            <phase duration="40" state="gggrrrrrrrrrrrrrgrrrrrrrrrrrrrrrrggrrrrrrrrrrrrrrgGGGGGGGGGGGGGGGGGGGG" />
            <phase duration="31" state="gggrrrrrrrrrrrrrgrrrrrrrrrrrrrrrrggGGGGGGGGGGGGGGgrrrrrrrrrrrrrrrrrrrr" />
            <phase duration="58" state="gggGGGGGGGGGGGGGgrrrrrrrrrrrrrrrrggrrrrrrrrrrrrrrgrrrrrrrrrrrrrrrrrrrr" />
            <phase duration="45" state="gggrrrrrrrrrrrrrgGGGGGGGGGGGGGGGGggrrrrrrrrrrrrrrgGGGGGGGGGGGGrrrrrrrr" />
            <phase duration="39" state="gggrrrrrrrrrrrrrgrrrrrrrrrrrrrrrrggrrrrrrrrrrrrrrgGGGGGGGGGGGGGGGGGGGG" />
            <phase duration="33" state="gggrrrrrrrrrrrrrgrrrrrrrrrrrrrrrrggGGGGGGGGGGGGGGgrrrrrrrrrrrrrrrrrrrr" />
            <phase duration="40" state="gggGGGGGGGGGGGGGgrrrrrrrrrrrrrrrrggrrrrrrrrrrrrrrgrrrrrrrrrrrrrrrrrrrr" />
            <phase duration="42" state="gggrrrrrrrrrrrrrgGGGGGGGGGGGGGGGGggrrrrrrrrrrrrrrgGGGGGGGGGGGGrrrrrrrr" />
            <phase duration="101" state="gggrrrrrrrrrrrrrgrrrrrrrrrrrrrrrrggrrrrrrrrrrrrrrgGGGGGGGGGGGGGGGGGGGG" />
            <phase duration="42" state="gggrrrrrrrrrrrrrgrrrrrrrrrrrrrrrrggGGGGGGGGGGGGGGgrrrrrrrrrrrrrrrrrrrr" />
            <phase duration="58" state="gggGGGGGGGGGGGGGgrrrrrrrrrrrrrrrrggrrrrrrrrrrrrrrgrrrrrrrrrrrrrrrrrrrr" />
            <phase duration="62" state="gggrrrrrrrrrrrrrgGGGGGGGGGGGGGGGGggrrrrrrrrrrrrrrgGGGGGGGGGGGGrrrrrrrr" />
            <phase duration="43" state="gggrrrrrrrrrrrrrgrrrrrrrrrrrrrrrrggrrrrrrrrrrrrrrgGGGGGGGGGGGGGGGGGGGG" />
            <phase duration="29" state="gggrrrrrrrrrrrrrgrrrrrrrrrrrrrrrrggGGGGGGGGGGGGGGgrrrrrrrrrrrrrrrrrrrr" />
            <phase duration="53" state="gggGGGGGGGGGGGGGgrrrrrrrrrrrrrrrrggrrrrrrrrrrrrrrgrrrrrrrrrrrrrrrrrrrr" />
            <phase duration="45" state="gggrrrrrrrrrrrrrgGGGGGGGGGGGGGGGGggrrrrrrrrrrrrrrgGGGGGGGGGGGGrrrrrrrr" />
            <phase duration="57" state="gggrrrrrrrrrrrrrgrrrrrrrrrrrrrrrrggrrrrrrrrrrrrrrgGGGGGGGGGGGGGGGGGGGG" />
            <phase duration="34" state="gggrrrrrrrrrrrrrgrrrrrrrrrrrrrrrrggGGGGGGGGGGGGGGgrrrrrrrrrrrrrrrrrrrr" />
            <phase duration="63" state="gggGGGGGGGGGGGGGgrrrrrrrrrrrrrrrrggrrrrrrrrrrrrrrgrrrrrrrrrrrrrrrrrrrr" />
            <phase duration="51" state="gggrrrrrrrrrrrrrgGGGGGGGGGGGGGGGGggrrrrrrrrrrrrrrgGGGGGGGGGGGGrrrrrrrr" />
            <phase duration="73" state="gggrrrrrrrrrrrrrgrrrrrrrrrrrrrrrrggrrrrrrrrrrrrrrgGGGGGGGGGGGGGGGGGGGG" />
            <phase duration="38" state="gggrrrrrrrrrrrrrgrrrrrrrrrrrrrrrrggGGGGGGGGGGGGGGgrrrrrrrrrrrrrrrrrrrr" />
            <phase duration="69" state="gggGGGGGGGGGGGGGgrrrrrrrrrrrrrrrrggrrrrrrrrrrrrrrgrrrrrrrrrrrrrrrrrrrr" />
            <phase duration="64" state="gggrrrrrrrrrrrrrgGGGGGGGGGGGGGGGGggrrrrrrrrrrrrrrgGGGGGGGGGGGGrrrrrrrr" />
            <phase duration="51" state="gggrrrrrrrrrrrrrgrrrrrrrrrrrrrrrrggrrrrrrrrrrrrrrgGGGGGGGGGGGGGGGGGGGG" />
            <phase duration="34" state="gggrrrrrrrrrrrrrgrrrrrrrrrrrrrrrrggGGGGGGGGGGGGGGgrrrrrrrrrrrrrrrrrrrr" />
            <phase duration="67" state="gggGGGGGGGGGGGGGgrrrrrrrrrrrrrrrrggrrrrrrrrrrrrrrgrrrrrrrrrrrrrrrrrrrr" />
            <phase duration="45" state="gggrrrrrrrrrrrrrgGGGGGGGGGGGGGGGGggrrrrrrrrrrrrrrgGGGGGGGGGGGGrrrrrrrr" />
            <phase duration="43" state="gggrrrrrrrrrrrrrgrrrrrrrrrrrrrrrrggrrrrrrrrrrrrrrgGGGGGGGGGGGGGGGGGGGG" />
            <phase duration="34" state="gggrrrrrrrrrrrrrgrrrrrrrrrrrrrrrrggGGGGGGGGGGGGGGgrrrrrrrrrrrrrrrrrrrr" />
            <phase duration="45" state="gggGGGGGGGGGGGGGgrrrrrrrrrrrrrrrrggrrrrrrrrrrrrrrgrrrrrrrrrrrrrrrrrrrr" />
            <phase duration="42" state="gggrrrrrrrrrrrrrgGGGGGGGGGGGGGGGGggrrrrrrrrrrrrrrgGGGGGGGGGGGGrrrrrrrr" />
            <phase duration="35" state="gggrrrrrrrrrrrrrgrrrrrrrrrrrrrrrrggrrrrrrrrrrrrrrgGGGGGGGGGGGGGGGGGGGG" />
            <phase duration="60" state="gggGGGGGGGGGGGGGgrrrrrrrrrrrrrrrrggrrrrrrrrrrrrrrgrrrrrrrrrrrrrrrrrrrr" />
            <phase duration="50" state="gggrrrrrrrrrrrrrgGGGGGGGGGGGGGGGGggrrrrrrrrrrrrrrgGGGGGGGGGGGGrrrrrrrr" />
            <phase duration="35" state="gggrrrrrrrrrrrrrgrrrrrrrrrrrrrrrrggrrrrrrrrrrrrrrgGGGGGGGGGGGGGGGGGGGG" />
            <phase duration="40" state="gggrrrrrrrrrrrrrgrrrrrrrrrrrrrrrrggGGGGGGGGGGGGGGgrrrrrrrrrrrrrrrrrrrr" />
            <phase duration="50" state="gggGGGGGGGGGGGGGgrrrrrrrrrrrrrrrrggrrrrrrrrrrrrrrgrrrrrrrrrrrrrrrrrrrr" />
            <phase duration="37" state="gggrrrrrrrrrrrrrgGGGGGGGGGGGGGGGGggrrrrrrrrrrrrrrgGGGGGGGGGGGGrrrrrrrr" />
            <phase duration="35" state="gggrrrrrrrrrrrrrgrrrrrrrrrrrrrrrrggrrrrrrrrrrrrrrgGGGGGGGGGGGGGGGGGGGG" />
            <phase duration="63" state="gggGGGGGGGGGGGGGgrrrrrrrrrrrrrrrrggrrrrrrrrrrrrrrgrrrrrrrrrrrrrrrrrrrr" />
            <phase duration="45" state="gggrrrrrrrrrrrrrgGGGGGGGGGGGGGGGGggrrrrrrrrrrrrrrgGGGGGGGGGGGGrrrrrrrr" />
            <phase duration="31" state="gggrrrrrrrrrrrrrgrrrrrrrrrrrrrrrrggrrrrrrrrrrrrrrgGGGGGGGGGGGGGGGGGGGG" />
            <phase duration="37" state="gggrrrrrrrrrrrrrgrrrrrrrrrrrrrrrrggGGGGGGGGGGGGGGgrrrrrrrrrrrrrrrrrrrr" />
            <phase duration="57" state="gggGGGGGGGGGGGGGgrrrrrrrrrrrrrrrrggrrrrrrrrrrrrrrgrrrrrrrrrrrrrrrrrrrr" />
            <phase duration="52" state="gggrrrrrrrrrrrrrgGGGGGGGGGGGGGGGGggrrrrrrrrrrrrrrgGGGGGGGGGGGGrrrrrrrr" />
            <phase duration="28" state="gggrrrrrrrrrrrrrgrrrrrrrrrrrrrrrrggrrrrrrrrrrrrrrgGGGGGGGGGGGGGGGGGGGG" />
            <phase duration="70" state="gggGGGGGGGGGGGGGgrrrrrrrrrrrrrrrrggrrrrrrrrrrrrrrgrrrrrrrrrrrrrrrrrrrr" />
            <phase duration="45" state="gggrrrrrrrrrrrrrgGGGGGGGGGGGGGGGGggrrrrrrrrrrrrrrgGGGGGGGGGGGGrrrrrrrr" />
            <phase duration="25" state="gggrrrrrrrrrrrrrgrrrrrrrrrrrrrrrrggrrrrrrrrrrrrrrgGGGGGGGGGGGGGGGGGGGG" />
            <phase duration="41" state="gggrrrrrrrrrrrrrgrrrrrrrrrrrrrrrrggGGGGGGGGGGGGGGgrrrrrrrrrrrrrrrrrrrr" />
            <phase duration="32" state="gggGGGGGGGGGGGGGgrrrrrrrrrrrrrrrrggrrrrrrrrrrrrrrgrrrrrrrrrrrrrrrrrrrr" />
            <phase duration="57" state="gggrrrrrrrrrrrrrgGGGGGGGGGGGGGGGGggrrrrrrrrrrrrrrgGGGGGGGGGGGGrrrrrrrr" />
            <phase duration="20" state="gggrrrrrrrrrrrrrgrrrrrrrrrrrrrrrrggrrrrrrrrrrrrrrgGGGGGGGGGGGGGGGGGGGG" />